<?xml version="1.0" ?>
<!-- Generated by MOSAIC scenario-convert 18.0 -->
<routes>
	<vType id="default" length="7.5" maxSpeed="50" minGap="2.0" carFollowModel="Krauss" accel="0.80" decel="4.5" sigma="0.5" tau="1"/>
	<route id="1" edges="30157290_26906639_3956502021 469999017_3956502021_3956502022 469999008_3956502022_3956502024 451621864_3956502024_6235320875 451621864_6235320875_26729654 4463223_26729654_26906847 4693138_26906847_26729624 148808620_26729624_26917671 225442114_26917671_1583966091 318138829_1583966091_3245168702 318138830_3245168702_1560557449 318138831_1560557449_3245168703 318138834_3245168703_3370805367 330119108_3370805367_26848789 377968517_26848789_3813750936 318138835_3813750936_26848742 318138835_26848742_26848737 318138835_26848737_26848728 318138835_26848728_3573516691 318138835_3573516691_30320243 318138835_30320243_26848757 318138835_26848757_26848723 318138835_26848723_3245168704 4475167_3245168704_26583824 318138838_26583824_1154118695 172382664_1154118695_26848713 172382664_26848713_1154118695" />
	<route id="2" edges="30157290_26906639_3956502021 469999017_3956502021_3956502022 469999008_3956502022_3956502024 451621864_3956502024_6235320875 451621864_6235320875_26729654 4463223_26729654_26906847 483483276_26906847_3956502028 525975762_3956502028_5115875877 525975762_5115875877_573213380 112509370_573213380_5115875840 112509370_5115875840_5115875843 112509370_5115875843_26907794 112509370_26907794_5115875847 112509370_5115875847_26907790 112509370_26907790_26849003 4531702_26849003_6282229085 4531702_6282229085_26849000 128601849_26849000_6235317741 128601849_6235317741_1420372623 128602194_1420372623_26583825 318138855_26583825_3245168705 318138844_3245168705_26583824 318138838_26583824_1154118695 172382664_1154118695_26848713 172382664_26848713_1154118695" />
	<route id="3" edges="30157290_26906639_3956502021 469999017_3956502021_3956502022 469999008_3956502022_3956502024 451621864_3956502024_6235320875 451621864_6235320875_26729654 4463223_26729654_26906847 4693138_26906847_26729624 148808620_26729624_26917671 225442114_26917671_1583966091 318138829_1583966091_3245168702 318138830_3245168702_1560557449 142593460_1560557449_26848746 142593460_26848746_26848750 142593460_26848750_1560557459 27637846_1560557459_3573516691 318138835_3573516691_30320243 318138835_30320243_26848757 318138835_26848757_26848723 318138835_26848723_3245168704 4475167_3245168704_26583824 318138838_26583824_1154118695 172382664_1154118695_26848713 172382664_26848713_1154118695" />
</routes>