<edges>
	<edge id="318138835_3573516691_26848728" from="3573516691" to="26848728" numLanes="1" shape="385708.97,5813666.07,0.00 385705.92,5813661.13,0.00" speed="13.89" />
	<edge id="151145585_1639697686_26906828" from="1639697686" to="26906828" numLanes="3" shape="386206.30,5813298.88,0.00 386222.30,5813318.69,0.00" speed="22.22" />
	<edge id="4689654_26906846_237164127" from="26906846" to="237164127" numLanes="1" shape="386320.21,5813294.68,0.00 386328.37,5813295.43,0.00 386449.81,5813303.69,0.00 386513.61,5813307.76,0.00 386529.84,5813308.66,0.00 386553.70,5813310.25,0.00 386571.78,5813310.35,0.00 386620.82,5813313.28,0.00 386627.55,5813313.67,0.00" speed="13.89" />
	<edge id="318138835_26848737_26848742" from="26848737" to="26848742" numLanes="1" shape="385651.35,5813568.64,0.00 385604.59,5813491.99,0.00" speed="13.89" />
	<edge id="30144127_6235320873_26906841" from="6235320873" to="26906841" numLanes="1" shape="386040.08,5813151.66,0.00 386037.91,5813148.93,0.00 386031.37,5813140.72,0.00" speed="13.89" />
	<edge id="128514916_1406942854_26583827" from="1406942854" to="26583827" numLanes="4" shape="386389.66,5813560.24,0.00 386421.65,5813536.04,0.00" speed="13.89" />
	<edge id="158184101_31390015_31390016" from="31390015" to="31390016" numLanes="1" shape="386290.76,5813656.63,0.00 386291.84,5813650.21,0.00 386298.25,5813608.82,0.00 386302.93,5813580.31,0.00 386303.75,5813574.79,0.00 386313.73,5813507.75,0.00 386316.17,5813500.68,0.00" speed="8.33" />
	<edge id="70171833_5115875848_26907788" from="5115875848" to="26907788" numLanes="1" shape="386196.32,5813675.13,0.00 386191.61,5813667.22,0.00" speed="13.89" />
	<edge id="192464201_267341562_26906636" from="267341562" to="26906636" numLanes="2" shape="386022.53,5813101.45,0.00 385981.38,5813058.68,0.00 385960.11,5813036.75,0.00 385937.25,5813013.34,0.00 385912.62,5812990.97,0.00 385891.98,5812974.66,0.00 385871.26,5812960.74,0.00 385852.21,5812950.49,0.00" speed="16.67" />
	<edge id="36071345_130097525_5115875860" from="130097525" to="5115875860" numLanes="1" shape="386319.09,5813870.24,0.00 386316.11,5813865.49,0.00" speed="13.89" />
	<edge id="209262337_26849023_31389697" from="26849023" to="31389697" numLanes="1" shape="386453.44,5813877.41,0.00 386583.95,5813907.66,0.00 386620.45,5813914.46,0.00" speed="8.33" />
	<edge id="112509370_5115875847_26907790" from="5115875847" to="26907790" numLanes="1" shape="386192.74,5813650.34,0.00 386194.44,5813653.08,0.00 386199.89,5813661.81,0.00" speed="13.89" />
	<edge id="4463294_26849033_28120129" from="26849033" to="28120129" numLanes="2" shape="386430.04,5813548.91,0.00 386449.32,5813575.36,0.00 386510.23,5813659.46,0.00" speed="16.67" />
	<edge id="209262338_26848813_130097525" from="26848813" to="130097525" numLanes="1" shape="386328.73,5813885.91,0.00 386319.09,5813870.24,0.00" speed="13.89" />
	<edge id="4575437_27422537_1560562892" from="27422537" to="1560562892" numLanes="1" shape="385299.00,5813345.31,0.00 385286.39,5813354.13,0.00 385277.34,5813360.34,0.00 385154.61,5813445.36,0.00" speed="8.33" />
	<edge id="30144127_6235320873_26906837" from="6235320873" to="26906837" numLanes="1" shape="386040.08,5813151.66,0.00 386074.40,5813194.75,0.00 386079.96,5813201.73,0.00 386085.25,5813207.33,0.00 386086.30,5813208.42,0.00 386135.53,5813270.62,0.00 386146.26,5813283.40,0.00 386183.48,5813329.94,0.00" speed="13.89" />
	<edge id="330119109_3370805368_2297930735" from="3370805368" to="2297930735" numLanes="1" shape="385522.54,5813426.13,0.00 385505.63,5813436.58,0.00" speed="13.89" />
	<edge id="100405260_26848718_26848761" from="26848718" to="26848761" numLanes="1" shape="385581.69,5813938.18,0.00 385531.85,5813857.32,0.00" speed="8.33" />
	<edge id="4531698_26849008_26849006" from="26849008" to="26849006" numLanes="2" shape="385928.72,5813686.86,0.00 385927.76,5813684.44,0.00 385927.92,5813682.20,0.00 385929.77,5813674.93,0.00 385933.02,5813667.88,0.00 385938.76,5813661.30,0.00 385946.19,5813655.37,0.00 385953.32,5813653.80,0.00 385960.48,5813652.83,0.00 385967.84,5813654.55,0.00 385973.71,5813656.06,0.00 385976.21,5813657.74,0.00" speed="8.33" />
	<edge id="345376482_267350171_26906842" from="267350171" to="26906842" numLanes="2" shape="386033.27,5813127.57,0.00 386058.23,5813122.41,0.00 386083.09,5813112.05,0.00" speed="13.89" />
	<edge id="4871839_26907200_26907201" from="26907200" to="26907201" numLanes="1" shape="386148.00,5813141.03,0.00 386111.40,5813092.89,0.00" speed="8.33" />
	<edge id="30149228_5115875878_6235320886" from="5115875878" to="6235320886" numLanes="1" shape="385937.27,5813257.16,0.00 385933.98,5813251.88,0.00 385905.11,5813207.88,0.00 385902.62,5813204.08,0.00" speed="13.89" />
	<edge id="451621855_26906844_6235320870" from="26906844" to="6235320870" numLanes="3" shape="386000.92,5813134.80,0.00 386001.50,5813134.65,0.00" speed="13.89" />
	<edge id="41721037_28120128_4540444532" from="28120128" to="4540444532" numLanes="2" shape="386341.79,5813443.78,0.00 386413.79,5813526.97,0.00" speed="16.67" />
	<edge id="318138851_26583824_3245168706" from="26583824" to="3245168706" numLanes="1" shape="385842.89,5813886.80,0.00 385777.66,5813926.09,0.00 385774.40,5813928.06,0.00" speed="8.33" />
	<edge id="33115814_1560557449_27422739" from="1560557449" to="27422739" numLanes="1" shape="385703.63,5813303.77,0.00 385699.17,5813296.66,0.00 385696.07,5813292.04,0.00 385654.82,5813233.56,0.00 385614.67,5813175.70,0.00 385590.07,5813142.89,0.00" speed="8.33" />
	<edge id="158184100_26907792_26849006" from="26907792" to="26849006" numLanes="1" shape="386130.01,5813566.08,0.00 386098.17,5813584.72,0.00 386078.14,5813596.46,0.00 386068.50,5813602.10,0.00 385976.21,5813657.74,0.00" speed="8.33" />
	<edge id="330119110_2297930735_1560557456" from="2297930735" to="1560557456" numLanes="1" shape="385505.63,5813436.58,0.00 385455.90,5813462.58,0.00" speed="13.89" />
	<edge id="31774350_26906839_26906837" from="26906839" to="26906837" numLanes="1" shape="386264.57,5813288.81,0.00 386255.76,5813288.76,0.00 386246.72,5813290.58,0.00 386230.90,5813299.73,0.00 386183.48,5813329.94,0.00" speed="13.89" />
	<edge id="41721037_4540444532_26583827" from="4540444532" to="26583827" numLanes="2" shape="386413.79,5813526.97,0.00 386421.65,5813536.04,0.00" speed="16.67" />
	<edge id="311849554_26583827_1406942843" from="26583827" to="1406942843" numLanes="2" shape="386421.65,5813536.04,0.00 386556.85,5813430.57,0.00 386576.33,5813416.08,0.00 386614.06,5813387.41,0.00" speed="13.89" />
	<edge id="318138829_3245168702_1583966091" from="3245168702" to="1583966091" numLanes="1" shape="385733.32,5813285.31,0.00 385787.29,5813251.76,0.00" speed="13.89" />
	<edge id="387921527_6221587584_4900516052" from="6221587584" to="4900516052" numLanes="1" shape="386200.65,5813031.68,0.00 386120.60,5813086.57,0.00" speed="13.89" />
	<edge id="318138835_3573516691_30320243" from="3573516691" to="30320243" numLanes="1" shape="385708.97,5813666.07,0.00 385746.32,5813726.52,0.00" speed="13.89" />
	<edge id="4531702_26849003_6282229085" from="26849003" to="6282229085" numLanes="1" shape="386224.11,5813698.89,0.00 386217.66,5813702.52,0.00" speed="13.89" />
	<edge id="133988465_1560576065_1560576072" from="1560576065" to="1560576072" numLanes="1" shape="385286.54,5813905.81,0.00 385265.36,5813910.48,0.00 385238.79,5813913.48,0.00 385184.95,5813918.56,0.00" speed="8.33" />
	<edge id="112509341_5115875861_5115875873" from="5115875861" to="5115875873" numLanes="1" shape="386339.51,5813886.62,0.00 386343.41,5813892.77,0.00 386377.13,5813945.99,0.00" speed="13.89" />
	<edge id="483483274_26906848_3956502025" from="26906848" to="3956502025" numLanes="3" shape="385885.85,5813178.66,0.00 385881.05,5813171.01,0.00 385865.36,5813146.07,0.00 385863.80,5813143.60,0.00" speed="13.89" />
	<edge id="142594115_1560562876_27422537" from="1560562876" to="27422537" numLanes="1" shape="385138.75,5813110.68,0.00 385278.02,5813314.55,0.00 385299.00,5813345.31,0.00" speed="8.33" />
	<edge id="133988465_1560576072_1474201666" from="1560576072" to="1474201666" numLanes="1" shape="385184.95,5813918.56,0.00 385103.47,5813925.60,0.00 384962.71,5813935.06,0.00" speed="8.33" />
	<edge id="4531696_26848757_26849008" from="26848757" to="26849008" numLanes="1" shape="385777.43,5813778.82,0.00 385928.72,5813686.86,0.00" speed="8.33" />
	<edge id="148708810_267346950_1617825118" from="267346950" to="1617825118" numLanes="1" shape="385733.88,5812977.24,0.00 385704.35,5812997.77,0.00 385683.71,5813012.11,0.00 385673.61,5813019.14,0.00 385560.55,5813097.71,0.00" speed="8.33" />
	<edge id="128601849_26849000_6235317741" from="26849000" to="6235317741" numLanes="1" shape="386213.92,5813704.62,0.00 386203.94,5813710.68,0.00 386188.48,5813720.05,0.00 386123.22,5813759.62,0.00 386077.19,5813787.53,0.00 386050.23,5813799.08,0.00 386029.97,5813804.87,0.00 386026.81,5813805.21,0.00" speed="8.33" />
	<edge id="209262338_5115875864_26848813" from="5115875864" to="26848813" numLanes="1" shape="386338.30,5813901.58,0.00 386335.73,5813897.37,0.00 386328.73,5813885.91,0.00" speed="13.89" />
	<edge id="27853642_26848809_130097525" from="26848809" to="130097525" numLanes="1" shape="386326.82,5813865.83,0.00 386319.09,5813870.24,0.00" speed="13.89" />
	<edge id="31774351_31389678_31389680" from="31389678" to="31389680" numLanes="1" shape="386244.54,5813407.12,0.00 386304.73,5813484.50,0.00" speed="8.33" />
	<edge id="318138835_26848737_26848728" from="26848737" to="26848728" numLanes="1" shape="385651.35,5813568.64,0.00 385658.43,5813580.69,0.00 385670.87,5813601.84,0.00 385699.58,5813650.24,0.00 385705.92,5813661.13,0.00" speed="13.89" />
	<edge id="209262338_5115875875_5115875864" from="5115875875" to="5115875864" numLanes="1" shape="386383.80,5813977.92,0.00 386381.57,5813974.02,0.00 386375.23,5813962.95,0.00 386370.04,5813954.24,0.00 386351.98,5813923.97,0.00 386338.30,5813901.58,0.00" speed="13.89" />
	<edge id="318138835_30320243_3573516691" from="30320243" to="3573516691" numLanes="1" shape="385746.32,5813726.52,0.00 385708.97,5813666.07,0.00" speed="13.89" />
	<edge id="311849553_26848988_301567821" from="26848988" to="301567821" numLanes="2" shape="386389.31,5813577.33,0.00 386281.50,5813646.16,0.00 386236.99,5813671.18,0.00" speed="13.89" />
	<edge id="150685494_26848761_291709520" from="26848761" to="291709520" numLanes="1" shape="385531.85,5813857.32,0.00 385487.18,5813887.21,0.00 385482.32,5813896.47,0.00" speed="8.33" />
	<edge id="437152240_6235320881_26906847" from="6235320881" to="26906847" numLanes="3" shape="385918.76,5813178.36,0.00 385914.54,5813180.26,0.00 385905.18,5813184.48,0.00" speed="13.89" />
	<edge id="225442115_3370805368_26848789" from="3370805368" to="26848789" numLanes="1" shape="385522.54,5813426.13,0.00 385529.13,5813421.03,0.00 385555.06,5813400.95,0.00" speed="13.89" />
	<edge id="25508122_30441747_26848813" from="30441747" to="26848813" numLanes="2" shape="386089.57,5814034.13,0.00 386197.02,5813968.14,0.00 386328.73,5813885.91,0.00" speed="8.33" />
	<edge id="4463298_26906825_2291971891" from="26906825" to="2291971891" numLanes="1" shape="386067.29,5813146.50,0.00 386057.73,5813140.13,0.00 386036.75,5813117.44,0.00" speed="16.67" />
	<edge id="149992738_31389680_26907794" from="31389680" to="26907794" numLanes="1" shape="386304.73,5813484.50,0.00 386149.44,5813581.04,0.00" speed="8.33" />
	<edge id="377968517_3813750936_26848789" from="3813750936" to="26848789" numLanes="1" shape="385567.24,5813422.05,0.00 385555.06,5813400.95,0.00" speed="13.89" />
	<edge id="4575464_26848785_1474201657" from="26848785" to="1474201657" numLanes="1" shape="385491.46,5813790.90,0.00 385424.23,5813830.93,0.00 385362.18,5813869.52,0.00" speed="8.33" />
	<edge id="4575437_27422504_27422739" from="27422504" to="27422739" numLanes="1" shape="385444.13,5813244.19,0.00 385583.22,5813147.64,0.00 385590.07,5813142.89,0.00" speed="8.33" />
	<edge id="30149205_26906841_3956502027" from="26906841" to="3956502027" numLanes="3" shape="386031.37,5813140.72,0.00 386015.61,5813144.75,0.00 386013.97,5813145.17,0.00 385981.81,5813153.38,0.00 385970.57,5813157.06,0.00 385958.61,5813160.43,0.00 385948.09,5813163.75,0.00" speed="13.89" />
	<edge id="451621864_6235320875_26729654" from="6235320875" to="26729654" numLanes="3" shape="385889.60,5813159.66,0.00 385892.27,5813163.56,0.00 385897.52,5813171.23,0.00" speed="13.89" />
	<edge id="30149228_5115875841_5115875878" from="5115875841" to="5115875878" numLanes="1" shape="386023.41,5813394.55,0.00 386019.72,5813388.56,0.00 385998.63,5813355.42,0.00 385990.73,5813342.76,0.00 385937.27,5813257.16,0.00" speed="13.89" />
	<edge id="4475206_26848769_26840983" from="26848769" to="26840983" numLanes="1" shape="385365.60,5814067.92,0.00 385359.84,5814071.46,0.00 385251.54,5814137.43,0.00 385143.04,5814204.32,0.00 385137.64,5814205.36,0.00" speed="8.33" />
	<edge id="101290099_26848761_30320243" from="26848761" to="30320243" numLanes="1" shape="385531.85,5813857.32,0.00 385746.32,5813726.52,0.00" speed="8.33" />
	<edge id="4531702_6282229085_26849000" from="6282229085" to="26849000" numLanes="1" shape="386217.66,5813702.52,0.00 386213.92,5813704.62,0.00" speed="13.89" />
	<edge id="30144127_26906837_6235320873" from="26906837" to="6235320873" numLanes="1" shape="386183.48,5813329.94,0.00 386146.26,5813283.40,0.00 386135.53,5813270.62,0.00 386086.30,5813208.42,0.00 386085.25,5813207.33,0.00 386079.96,5813201.73,0.00 386074.40,5813194.75,0.00 386040.08,5813151.66,0.00" speed="13.89" />
	<edge id="149992812_1629331118_1629331117" from="1629331118" to="1629331117" numLanes="1" shape="386409.81,5813691.74,0.00 386332.61,5813680.92,0.00" speed="8.33" />
	<edge id="33115814_27422739_1617825118" from="27422739" to="1617825118" numLanes="1" shape="385590.07,5813142.89,0.00 385560.55,5813097.71,0.00" speed="8.33" />
	<edge id="151024105_267340687_1638722796" from="267340687" to="1638722796" numLanes="4" shape="386194.54,5813307.04,0.00 386168.60,5813274.21,0.00" speed="16.67" />
	<edge id="311849552_4540444534_26907678" from="4540444534" to="26907678" numLanes="3" shape="386372.94,5813573.66,0.00 386381.45,5813567.16,0.00" speed="13.89" />
	<edge id="112509370_5115875840_5115875843" from="5115875840" to="5115875843" numLanes="1" shape="386024.97,5813378.13,0.00 386028.28,5813383.34,0.00 386043.61,5813408.56,0.00 386049.46,5813418.62,0.00 386055.63,5813429.26,0.00 386061.71,5813438.95,0.00 386094.78,5813491.66,0.00 386097.47,5813495.94,0.00 386101.51,5813502.58,0.00 386137.50,5813561.68,0.00 386139.45,5813564.88,0.00" speed="13.89" />
	<edge id="151024102_2291971890_1638722795" from="2291971890" to="1638722795" numLanes="2" shape="386042.69,5813111.56,0.00 386029.47,5813096.27,0.00" speed="16.67" />
	<edge id="318138830_3245168702_1560557449" from="3245168702" to="1560557449" numLanes="1" shape="385733.32,5813285.31,0.00 385703.63,5813303.77,0.00" speed="13.89" />
	<edge id="469999008_3956502022_3956502024" from="3956502022" to="3956502024" numLanes="3" shape="385841.31,5813082.04,0.00 385854.70,5813106.45,0.00 385867.53,5813127.04,0.00" speed="13.89" />
	<edge id="4871838_6221589585_26906845" from="6221589585" to="26906845" numLanes="1" shape="386231.56,5813024.53,0.00 386306.98,5813134.87,0.00" speed="8.33" />
	<edge id="30157292_267350285_267350284" from="267350285" to="267350284" numLanes="1" shape="386022.20,5813129.32,0.00 386015.95,5813122.25,0.00 385997.11,5813100.97,0.00" speed="8.33" />
	<edge id="142594115_27422537_1560562876" from="27422537" to="1560562876" numLanes="1" shape="385299.00,5813345.31,0.00 385278.02,5813314.55,0.00 385138.75,5813110.68,0.00" speed="8.33" />
	<edge id="318138835_26848742_26848737" from="26848742" to="26848737" numLanes="1" shape="385604.59,5813491.99,0.00 385651.35,5813568.64,0.00" speed="13.89" />
	<edge id="377968517_26848789_3813750936" from="26848789" to="3813750936" numLanes="1" shape="385555.06,5813400.95,0.00 385567.24,5813422.05,0.00" speed="13.89" />
	<edge id="151145583_267340693_267340687" from="267340693" to="267340687" numLanes="4" shape="386210.31,5813326.40,0.00 386194.54,5813307.04,0.00" speed="16.67" />
	<edge id="318138830_1560557449_3245168702" from="1560557449" to="3245168702" numLanes="1" shape="385703.63,5813303.77,0.00 385733.32,5813285.31,0.00" speed="13.89" />
	<edge id="4871838_365255826_26906845" from="365255826" to="26906845" numLanes="1" shape="386318.35,5813213.99,0.00 386312.05,5813141.78,0.00 386306.98,5813134.87,0.00" speed="8.33" />
	<edge id="36072975_3245168706_6407907603" from="3245168706" to="6407907603" numLanes="1" shape="385774.40,5813928.06,0.00 385741.23,5813947.78,0.00 385652.59,5814002.60,0.00 385641.30,5814009.59,0.00" speed="8.33" />
	<edge id="158184094_26848750_26848737" from="26848750" to="26848737" numLanes="1" shape="385816.75,5813466.70,0.00 385651.35,5813568.64,0.00" speed="8.33" />
	<edge id="4871838_365255826_26906846" from="365255826" to="26906846" numLanes="1" shape="386318.35,5813213.99,0.00 386320.21,5813294.68,0.00" speed="8.33" />
	<edge id="33115814_1617825118_27422739" from="1617825118" to="27422739" numLanes="1" shape="385560.55,5813097.71,0.00 385590.07,5813142.89,0.00" speed="8.33" />
	<edge id="4582020_26906845_26907200" from="26906845" to="26907200" numLanes="1" shape="386306.98,5813134.87,0.00 386148.00,5813141.03,0.00" speed="8.33" />
	<edge id="27465049_301567821_2874697972" from="301567821" to="2874697972" numLanes="2" shape="386236.99,5813671.18,0.00 386234.59,5813672.64,0.00 386173.13,5813709.68,0.00 386154.01,5813717.19,0.00" speed="8.33" />
	<edge id="142593460_26848746_1560557449" from="26848746" to="1560557449" numLanes="1" shape="385765.30,5813392.59,0.00 385703.63,5813303.77,0.00" speed="8.33" />
	<edge id="318138835_3245168704_26848723" from="3245168704" to="26848723" numLanes="1" shape="385820.67,5813849.14,0.00 385794.77,5813808.00,0.00" speed="13.89" />
	<edge id="4582020_26583831_26906845" from="26583831" to="26906845" numLanes="1" shape="386697.71,5813055.86,0.00 386590.05,5813078.87,0.00 386498.95,5813099.07,0.00 386306.98,5813134.87,0.00" speed="8.33" />
	<edge id="133988465_1474201666_1560576072" from="1474201666" to="1560576072" numLanes="1" shape="384962.71,5813935.06,0.00 385103.47,5813925.60,0.00 385184.95,5813918.56,0.00" speed="8.33" />
	<edge id="101290092_26729627_26848785" from="26729627" to="26848785" numLanes="1" shape="385363.55,5813507.16,0.00 385405.36,5813602.22,0.00 385471.27,5813752.06,0.00 385491.46,5813790.90,0.00" speed="8.33" />
	<edge id="32486561_353962106_365255826" from="353962106" to="365255826" numLanes="1" shape="386625.15,5813193.35,0.00 386506.64,5813201.89,0.00 386318.35,5813213.99,0.00" speed="8.33" />
	<edge id="318138834_3370805367_3245168703" from="3370805367" to="3245168703" numLanes="1" shape="385588.58,5813377.86,0.00 385669.14,5813325.67,0.00" speed="13.89" />
	<edge id="387921527_6221587584_26907202" from="6221587584" to="26907202" numLanes="1" shape="386200.65,5813031.68,0.00 386203.93,5813029.44,0.00 386212.63,5813023.47,0.00" speed="13.89" />
	<edge id="148708810_1617825118_267346950" from="1617825118" to="267346950" numLanes="1" shape="385560.55,5813097.71,0.00 385673.61,5813019.14,0.00 385683.71,5813012.11,0.00 385704.35,5812997.77,0.00 385733.88,5812977.24,0.00" speed="8.33" />
	<edge id="4582020_26907200_26906845" from="26907200" to="26906845" numLanes="1" shape="386148.00,5813141.03,0.00 386306.98,5813134.87,0.00" speed="8.33" />
	<edge id="330119108_3370805367_26848789" from="3370805367" to="26848789" numLanes="1" shape="385588.58,5813377.86,0.00 385586.18,5813379.50,0.00 385555.06,5813400.95,0.00" speed="13.89" />
	<edge id="4575437_27422537_27422504" from="27422537" to="27422504" numLanes="1" shape="385299.00,5813345.31,0.00 385315.37,5813334.01,0.00 385324.22,5813327.82,0.00 385444.13,5813244.19,0.00" speed="8.33" />
	<edge id="4689654_26906846_26906839" from="26906846" to="26906839" numLanes="1" shape="386320.21,5813294.68,0.00 386309.42,5813293.54,0.00 386286.60,5813291.14,0.00 386264.57,5813288.81,0.00" speed="13.89" />
	<edge id="330119110_1560557456_26729627" from="1560557456" to="26729627" numLanes="1" shape="385455.90,5813462.58,0.00 385421.64,5813479.45,0.00 385363.55,5813507.16,0.00" speed="13.89" />
	<edge id="4575464_26848785_1560557461" from="26848785" to="1560557461" numLanes="1" shape="385491.46,5813790.90,0.00 385606.70,5813719.91,0.00" speed="8.33" />
	<edge id="96088289_408871794_3496881325" from="408871794" to="3496881325" numLanes="2" shape="385937.83,5813046.01,0.00 385931.76,5813039.96,0.00 385927.73,5813033.99,0.00 385921.43,5813023.07,0.00 385916.88,5813019.90,0.00 385914.85,5813019.45,0.00" speed="8.33" />
	<edge id="4575464_1560557461_26848785" from="1560557461" to="26848785" numLanes="1" shape="385606.70,5813719.91,0.00 385491.46,5813790.90,0.00" speed="8.33" />
	<edge id="209262337_26849023_26848809" from="26849023" to="26848809" numLanes="1" shape="386453.44,5813877.41,0.00 386350.77,5813855.10,0.00 386326.82,5813865.83,0.00" speed="8.33" />
	<edge id="84659762_6235320880_26906848" from="6235320880" to="26906848" numLanes="3" shape="385873.80,5813188.02,0.00 385877.33,5813185.28,0.00 385885.85,5813178.66,0.00" speed="13.89" />
	<edge id="525975762_5115875877_573213380" from="5115875877" to="573213380" numLanes="1" shape="385939.01,5813242.14,0.00 385942.08,5813247.58,0.00" speed="13.89" />
	<edge id="36071345_5115875856_5115875854" from="5115875856" to="5115875854" numLanes="1" shape="386268.79,5813791.07,0.00 386266.96,5813788.15,0.00 386240.72,5813747.26,0.00 386224.31,5813721.15,0.00" speed="13.89" />
	<edge id="4575437_1560562892_27422537" from="1560562892" to="27422537" numLanes="1" shape="385154.61,5813445.36,0.00 385277.34,5813360.34,0.00 385286.39,5813354.13,0.00 385299.00,5813345.31,0.00" speed="8.33" />
	<edge id="142594113_1560562892_5846559612" from="1560562892" to="5846559612" numLanes="1" shape="385154.61,5813445.36,0.00 385085.73,5813343.89,0.00 385043.00,5813280.94,0.00 385013.79,5813241.14,0.00" speed="8.33" />
	<edge id="30149207_26729624_26906848" from="26729624" to="26906848" numLanes="2" shape="385893.63,5813190.39,0.00 385885.85,5813178.66,0.00" speed="13.89" />
	<edge id="151145587_267340733_267340693" from="267340733" to="267340693" numLanes="4" shape="386223.54,5813342.86,0.00 386210.31,5813326.40,0.00" speed="16.67" />
	<edge id="149992814_31389682_1629331118" from="31389682" to="1629331118" numLanes="1" shape="386420.43,5813629.47,0.00 386409.81,5813691.74,0.00" speed="8.33" />
	<edge id="4871839_26907200_26906839" from="26907200" to="26906839" numLanes="1" shape="386148.00,5813141.03,0.00 386205.64,5813216.69,0.00 386264.57,5813288.81,0.00" speed="8.33" />
	<edge id="311849552_3175885362_4540444534" from="3175885362" to="4540444534" numLanes="3" shape="386314.50,5813611.80,0.00 386372.94,5813573.66,0.00" speed="13.89" />
	<edge id="158184094_26848737_26848750" from="26848737" to="26848750" numLanes="1" shape="385651.35,5813568.64,0.00 385816.75,5813466.70,0.00" speed="8.33" />
	<edge id="4475206_26848718_26848769" from="26848718" to="26848769" numLanes="1" shape="385581.69,5813938.18,0.00 385452.98,5814018.78,0.00 385425.09,5814034.46,0.00 385371.54,5814064.78,0.00 385365.60,5814067.92,0.00" speed="8.33" />
	<edge id="220076575_2291971891_267341562" from="2291971891" to="267341562" numLanes="1" shape="386036.75,5813117.44,0.00 386022.53,5813101.45,0.00" speed="16.67" />
	<edge id="101290092_26848785_26729627" from="26848785" to="26729627" numLanes="1" shape="385491.46,5813790.90,0.00 385471.27,5813752.06,0.00 385405.36,5813602.22,0.00 385363.55,5813507.16,0.00" speed="8.33" />
	<edge id="29024754_26848991_26848994" from="26848991" to="26848994" numLanes="1" shape="386019.73,5813790.15,0.00 386032.61,5813785.11,0.00 386047.24,5813778.62,0.00 386062.50,5813770.99,0.00" speed="8.33" />
	<edge id="318138838_26583824_1154118695" from="26583824" to="1154118695" numLanes="1" shape="385842.89,5813886.80,0.00 385871.22,5813934.15,0.00" speed="13.89" />
	<edge id="318138851_3245168706_26583824" from="3245168706" to="26583824" numLanes="1" shape="385774.40,5813928.06,0.00 385777.66,5813926.09,0.00 385842.89,5813886.80,0.00" speed="8.33" />
	<edge id="4475206_26848723_26848718" from="26848723" to="26848718" numLanes="1" shape="385794.77,5813808.00,0.00 385581.69,5813938.18,0.00" speed="8.33" />
	<edge id="407074317_26906828_573213381" from="26906828" to="573213381" numLanes="3" shape="386222.30,5813318.69,0.00 386245.15,5813344.96,0.00" speed="22.22" />
	<edge id="28131584_27422504_27422748" from="27422504" to="27422748" numLanes="1" shape="385444.13,5813244.19,0.00 385366.00,5813130.17,0.00 385299.12,5813032.56,0.00 385287.59,5813019.37,0.00" speed="8.33" />
	<edge id="30157286_267350283_408871794" from="267350283" to="408871794" numLanes="1" shape="385984.00,5813086.79,0.00 385969.19,5813072.48,0.00 385948.26,5813053.52,0.00 385937.83,5813046.01,0.00" speed="8.33" />
	<edge id="142593460_26848750_1560557459" from="26848750" to="1560557459" numLanes="1" shape="385816.75,5813466.70,0.00 385882.30,5813560.08,0.00" speed="8.33" />
	<edge id="36072975_6407907603_3245168706" from="6407907603" to="3245168706" numLanes="1" shape="385641.30,5814009.59,0.00 385652.59,5814002.60,0.00 385741.23,5813947.78,0.00 385774.40,5813928.06,0.00" speed="8.33" />
	<edge id="101290091_26848785_26848761" from="26848785" to="26848761" numLanes="1" shape="385491.46,5813790.90,0.00 385531.85,5813857.32,0.00" speed="8.33" />
	<edge id="387921527_26907202_6221587584" from="26907202" to="6221587584" numLanes="1" shape="386212.63,5813023.47,0.00 386203.93,5813029.44,0.00 386200.65,5813031.68,0.00" speed="13.89" />
	<edge id="28131584_26848789_27422504" from="26848789" to="27422504" numLanes="1" shape="385555.06,5813400.95,0.00 385444.13,5813244.19,0.00" speed="8.33" />
	<edge id="440212233_26849003_5115875851" from="26849003" to="5115875851" numLanes="1" shape="386224.11,5813698.89,0.00 386228.40,5813705.88,0.00" speed="13.89" />
	<edge id="158184100_26849006_26907792" from="26849006" to="26907792" numLanes="1" shape="385976.21,5813657.74,0.00 386068.50,5813602.10,0.00 386078.14,5813596.46,0.00 386098.17,5813584.72,0.00 386130.01,5813566.08,0.00" speed="8.33" />
	<edge id="4449224_267339581_267340733" from="267339581" to="267340733" numLanes="3" shape="386587.33,5813812.76,0.00 386556.68,5813766.43,0.00 386459.35,5813635.10,0.00 386359.90,5813510.14,0.00 386296.98,5813431.31,0.00 386232.98,5813351.73,0.00 386223.54,5813342.86,0.00" speed="22.22" />
	<edge id="158184094_26848750_28891684" from="26848750" to="28891684" numLanes="1" shape="385816.75,5813466.70,0.00 385978.83,5813367.57,0.00" speed="8.33" />
	<edge id="128601849_6235317741_1420372623" from="6235317741" to="1420372623" numLanes="1" shape="386026.81,5813805.21,0.00 386001.70,5813802.43,0.00" speed="8.33" />
	<edge id="4463295_26907678_267340563" from="26907678" to="267340563" numLanes="2" shape="386381.45,5813567.16,0.00 386310.01,5813469.47,0.00" speed="16.67" />
	<edge id="407071532_1638722796_26906825" from="1638722796" to="26906825" numLanes="3" shape="386168.60,5813274.21,0.00 386067.29,5813146.50,0.00" speed="16.67" />
	<edge id="30144128_26906841_267350285" from="26906841" to="267350285" numLanes="2" shape="386031.37,5813140.72,0.00 386022.20,5813129.32,0.00" speed="13.89" />
	<edge id="28131584_27422748_27422504" from="27422748" to="27422504" numLanes="1" shape="385287.59,5813019.37,0.00 385299.12,5813032.56,0.00 385366.00,5813130.17,0.00 385444.13,5813244.19,0.00" speed="8.33" />
	<edge id="311849552_26907678_1406942854" from="26907678" to="1406942854" numLanes="3" shape="386381.45,5813567.16,0.00 386389.66,5813560.24,0.00" speed="13.89" />
	<edge id="4531699_26849006_26849008" from="26849006" to="26849008" numLanes="2" shape="385976.21,5813657.74,0.00 385977.39,5813660.81,0.00 385977.61,5813665.83,0.00 385977.04,5813672.64,0.00 385972.04,5813680.08,0.00 385965.30,5813685.56,0.00 385958.77,5813689.18,0.00 385950.62,5813692.22,0.00 385940.81,5813692.54,0.00 385932.08,5813689.59,0.00 385928.72,5813686.86,0.00" speed="8.33" />
	<edge id="142593458_1560557456_3907730345" from="1560557456" to="3907730345" numLanes="1" shape="385455.90,5813462.58,0.00 385459.34,5813470.74,0.00 385536.98,5813602.01,0.00" speed="8.33" />
	<edge id="36071345_5115875854_26849000" from="5115875854" to="26849000" numLanes="1" shape="386224.31,5813721.15,0.00 386220.96,5813715.82,0.00 386213.92,5813704.62,0.00" speed="13.89" />
	<edge id="128601785_1420372616_1420372623" from="1420372616" to="1420372623" numLanes="1" shape="385995.23,5813793.31,0.00 386001.70,5813802.43,0.00" speed="8.33" />
	<edge id="4693139_26907201_26906842" from="26907201" to="26906842" numLanes="1" shape="386111.40,5813092.89,0.00 386100.10,5813100.73,0.00 386083.09,5813112.05,0.00" speed="13.89" />
	<edge id="30149228_26907788_5115875842" from="26907788" to="5115875842" numLanes="1" shape="386191.61,5813667.22,0.00 386186.04,5813658.09,0.00 386181.15,5813650.05,0.00 386141.98,5813585.71,0.00 386138.81,5813580.51,0.00" speed="13.89" />
	<edge id="148808620_26729624_26917671" from="26729624" to="26917671" numLanes="2" shape="385893.63,5813190.39,0.00 385884.15,5813196.18,0.00 385852.83,5813215.30,0.00 385837.47,5813220.49,0.00" speed="13.89" />
	<edge id="330119110_1560557456_2297930735" from="1560557456" to="2297930735" numLanes="1" shape="385455.90,5813462.58,0.00 385505.63,5813436.58,0.00" speed="13.89" />
	<edge id="149992813_26849023_1629331117" from="26849023" to="1629331117" numLanes="1" shape="386453.44,5813877.41,0.00 386332.61,5813680.92,0.00" speed="8.33" />
	<edge id="469999017_3956502021_3956502022" from="3956502021" to="3956502022" numLanes="3" shape="385833.69,5813068.16,0.00 385841.31,5813082.04,0.00" speed="13.89" />