<?xml version="1.0" encoding="UTF-8"?>

<!-- generated on 2022-02-17 18:26:49 by Eclipse SUMO netconvert Version 1.11.0
<configuration xmlns:xsi="http://www.w3.org/2001/XMLSchema-instance" xsi:noNamespaceSchemaLocation="http://sumo.dlr.de/xsd/netconvertConfiguration.xsd">

    <input>
        <node-files value="C:\Users\josep\Desktop\journey_aware\steglitz\sumo\steglitz.nod.xml"/>
        <edge-files value="C:\Users\josep\Desktop\journey_aware\steglitz\sumo\steglitz.edg.xml"/>
        <connection-files value="C:\Users\josep\Desktop\journey_aware\steglitz\sumo\steglitz.con.xml"/>
    </input>

    <output>
        <output-file value="C:\Users\josep\Desktop\journey_aware\steglitz\sumo\steglitz.net.xml"/>
    </output>

    <report>
        <aggregate-warnings value="5"/>
    </report>

</configuration>
-->

<net version="1.9" junctionCornerDetail="5" limitTurnSpeed="5.50" xmlns:xsi="http://www.w3.org/2001/XMLSchema-instance" xsi:noNamespaceSchemaLocation="http://sumo.dlr.de/xsd/net_file.xsd">

    <location netOffset="-384962.71,-5812878.57" convBoundary="0.00,0.00,1735.00,1326.79" origBoundary="384962.71,5812878.57,386697.71,5814205.36" projParameter="!"/>

    <edge id=":1154118695_0" function="internal">
        <lane id=":1154118695_0_0" index="0" speed="13.89" length="0.26" shape="907.20,1056.50 907.06,1056.28"/>
    </edge>
    <edge id=":1154118695_1" function="internal">
        <lane id=":1154118695_1_0" index="0" speed="3.65" length="2.34" shape="907.20,1056.50 907.29,1055.06 907.78,1054.32"/>
    </edge>
    <edge id=":1154118695_4" function="internal">
        <lane id=":1154118695_4_0" index="0" speed="3.65" length="2.34" shape="907.78,1054.32 908.68,1054.27 909.97,1054.90"/>
    </edge>
    <edge id=":1154118695_2" function="internal">
        <lane id=":1154118695_2_0" index="0" speed="13.89" length="0.31" shape="909.81,1054.64 909.97,1054.90"/>
    </edge>
    <edge id=":1154118695_3" function="internal">
        <lane id=":1154118695_3_0" index="0" speed="3.65" length="2.34" shape="909.81,1054.64 909.74,1056.08 909.26,1056.83"/>
    </edge>
    <edge id=":1154118695_5" function="internal">
        <lane id=":1154118695_5_0" index="0" speed="3.65" length="2.34" shape="909.26,1056.83 908.37,1056.90 907.06,1056.28"/>
    </edge>
    <edge id=":130097525_0" function="internal">
        <lane id=":130097525_0_0" index="0" speed="13.89" length="9.39" shape="1357.48,996.51 1352.53,988.54"/>
    </edge>
    <edge id=":130097525_1" function="internal">
        <lane id=":130097525_1_0" index="0" speed="6.19" length="1.75" shape="1358.57,992.26 1357.17,992.61 1356.88,992.52"/>
    </edge>
    <edge id=":130097525_2" function="internal">
        <lane id=":130097525_2_0" index="0" speed="3.65" length="4.67" shape="1358.57,992.26 1357.13,992.16 1356.39,991.67 1356.34,990.77 1356.98,989.48"/>
    </edge>
    <edge id=":130097525_3" function="internal">
        <lane id=":130097525_3_0" index="0" speed="6.19" length="6.06" shape="1356.88,992.52 1355.69,992.11 1354.15,990.75 1352.53,988.54"/>
    </edge>
    <edge id=":1406942843_0" function="internal">
        <lane id=":1406942843_0_0" index="0" speed="13.89" length="0.30" shape="1648.33,505.10 1648.58,504.92"/>
        <lane id=":1406942843_0_1" index="1" speed="13.89" length="0.30" shape="1650.27,507.65 1650.50,507.48"/>
    </edge>
    <edge id=":1406942854_0" function="internal">
        <lane id=":1406942854_0_0" index="0" speed="13.89" length="8.45" shape="1418.92,677.98 1420.50,675.99 1421.02,674.14 1421.56,672.33 1423.23,670.44"/>
        <lane id=":1406942854_0_1" index="1" speed="13.89" length="8.45" shape="1420.98,680.42 1422.53,678.47 1423.02,676.64 1423.53,674.85 1425.16,672.99"/>
        <lane id=":1406942854_0_2" index="2" speed="13.89" length="8.45" shape="1423.04,682.87 1424.55,680.94 1425.01,679.14 1425.50,677.38 1427.09,675.55"/>
        <lane id=":1406942854_0_3" index="3" speed="13.89" length="8.45" shape="1423.04,682.87 1429.02,678.10"/>
    </edge>
    <edge id=":1420372616_0" function="internal">
        <lane id=":1420372616_0_0" index="0" speed="8.33" length="29.36" shape="1034.51,920.32 1033.57,916.20 1035.84,911.07 1041.34,904.93 1050.06,897.76"/>
    </edge>
    <edge id=":1420372616_1" function="internal">
        <lane id=":1420372616_1_0" index="0" speed="7.61" length="17.47" shape="1034.51,920.32 1033.39,917.20 1034.85,914.69 1038.90,912.77 1045.54,911.45"/>
    </edge>
    <edge id=":1420372616_2" function="internal">
        <lane id=":1420372616_2_0" index="0" speed="3.65" length="4.67" shape="1034.51,920.32 1034.47,918.87 1034.89,918.09 1035.78,917.95 1037.12,918.46"/>
    </edge>
    <edge id=":1420372616_3" function="internal">
        <lane id=":1420372616_3_0" index="0" speed="8.33" length="30.00" shape="1022.75,910.09 1032.30,906.19 1040.10,902.92 1046.05,900.15 1050.06,897.76"/>
    </edge>
    <edge id=":1420372616_4" function="internal">
        <lane id=":1420372616_4_0" index="0" speed="8.33" length="22.27" shape="1022.75,910.09 1029.24,908.20 1034.12,908.07 1038.91,908.50 1045.13,908.27"/>
        <lane id=":1420372616_4_1" index="1" speed="8.33" length="22.27" shape="1023.96,913.05 1030.16,911.26 1034.79,911.20 1039.39,911.66 1045.54,911.45"/>
    </edge>
    <edge id=":1420372616_6" function="internal">
        <lane id=":1420372616_6_0" index="0" speed="8.33" length="13.30" shape="1025.17,916.02 1028.89,914.95 1032.12,915.01 1034.86,916.18 1037.12,918.46"/>
    </edge>
    <edge id=":1420372623_0" function="internal">
        <lane id=":1420372623_0_0" index="0" speed="8.33" length="24.05" shape="1057.46,927.51 1052.99,927.32 1047.29,927.70 1040.77,928.83 1033.83,930.92"/>
    </edge>
    <edge id=":1420372623_1" function="internal">
        <lane id=":1420372623_1_0" index="0" speed="8.33" length="23.75" shape="1056.06,921.91 1049.72,925.67 1044.74,927.63 1039.86,928.98 1033.83,930.92"/>
        <lane id=":1420372623_1_1" index="1" speed="8.33" length="23.75" shape="1054.26,919.27 1048.16,922.88 1043.40,924.73 1038.67,926.01 1032.70,927.92"/>
    </edge>
    <edge id=":1420372623_3" function="internal">
        <lane id=":1420372623_3_0" index="0" speed="6.88" length="12.26" shape="1037.49,918.98 1038.69,921.66 1038.30,924.04 1036.30,926.13 1032.70,927.92"/>
    </edge>
    <edge id=":1420372623_4" function="internal">
        <lane id=":1420372623_4_0" index="0" speed="3.65" length="4.67" shape="1037.49,918.98 1037.53,920.42 1037.11,921.21 1036.23,921.35 1034.88,920.83"/>
    </edge>
    <edge id=":1474201657_0" function="internal">
        <lane id=":1474201657_0_0" index="0" speed="8.33" length="0.10" shape="400.31,992.31 400.25,992.35"/>
    </edge>
    <edge id=":1474201657_1" function="internal">
        <lane id=":1474201657_1_0" index="0" speed="3.65" length="2.34" shape="400.31,992.31 398.87,992.26 398.11,991.79"/>
    </edge>
    <edge id=":1474201657_4" function="internal">
        <lane id=":1474201657_4_0" index="0" speed="3.65" length="2.34" shape="398.11,991.79 398.03,990.90 398.63,989.59"/>
    </edge>
    <edge id=":1474201657_2" function="internal">
        <lane id=":1474201657_2_0" index="0" speed="8.33" length="0.10" shape="398.69,989.55 398.63,989.59"/>
    </edge>
    <edge id=":1474201657_3" function="internal">
        <lane id=":1474201657_3_0" index="0" speed="3.65" length="2.34" shape="398.69,989.55 400.13,989.67 400.87,990.17"/>
    </edge>
    <edge id=":1474201657_5" function="internal">
        <lane id=":1474201657_5_0" index="0" speed="3.65" length="2.34" shape="400.87,990.17 400.91,991.06 400.25,992.35"/>
    </edge>
    <edge id=":1474201666_0" function="internal">
        <lane id=":1474201666_0_0" index="0" speed="3.65" length="4.67" shape="0.11,1058.09 -1.14,1057.37 -1.60,1056.60 -1.25,1055.77 -0.11,1054.89"/>
    </edge>
    <edge id=":1560557449_0" function="internal">
        <lane id=":1560557449_0_0" index="0" speed="6.71" length="9.36" shape="743.81,432.16 742.05,430.26 740.12,429.33 738.01,429.38 735.71,430.40"/>
    </edge>
    <edge id=":1560557449_1" function="internal">
        <lane id=":1560557449_1_0" index="0" speed="8.33" length="14.62" shape="743.81,432.16 735.75,419.96"/>
    </edge>
    <edge id=":1560557449_2" function="internal">
        <lane id=":1560557449_2_0" index="0" speed="7.91" length="6.19" shape="743.81,432.16 742.03,428.61 741.91,426.39"/>
    </edge>
    <edge id=":1560557449_3" function="internal">
        <lane id=":1560557449_3_0" index="0" speed="3.65" length="2.34" shape="743.81,432.16 743.78,430.72 744.21,429.94"/>
    </edge>
    <edge id=":1560557449_16" function="internal">
        <lane id=":1560557449_16_0" index="0" speed="7.91" length="8.19" shape="741.91,426.39 741.86,425.39 743.29,422.51 746.33,419.95"/>
    </edge>
    <edge id=":1560557449_17" function="internal">
        <lane id=":1560557449_17_0" index="0" speed="3.65" length="2.34" shape="744.21,429.94 745.09,429.81 746.44,430.34"/>
    </edge>
    <edge id=":1560557449_4" function="internal">
        <lane id=":1560557449_4_0" index="0" speed="6.40" length="9.04" shape="748.02,422.67 746.11,424.27 745.21,426.09 745.32,428.11 746.44,430.34"/>
    </edge>
    <edge id=":1560557449_5" function="internal">
        <lane id=":1560557449_5_0" index="0" speed="13.89" length="14.53" shape="748.02,422.67 735.71,430.40"/>
    </edge>
    <edge id=":1560557449_6" function="internal">
        <lane id=":1560557449_6_0" index="0" speed="8.05" length="5.99" shape="748.02,422.67 744.40,424.27 742.38,424.33"/>
    </edge>
    <edge id=":1560557449_7" function="internal">
        <lane id=":1560557449_7_0" index="0" speed="3.65" length="2.34" shape="748.02,422.67 746.58,422.62 745.82,422.16"/>
    </edge>
    <edge id=":1560557449_18" function="internal">
        <lane id=":1560557449_18_0" index="0" speed="8.05" length="8.34" shape="742.38,424.33 741.15,424.36 738.26,422.92 735.75,419.96"/>
    </edge>
    <edge id=":1560557449_19" function="internal">
        <lane id=":1560557449_19_0" index="0" speed="3.65" length="2.34" shape="745.82,422.16 745.73,421.26 746.33,419.95"/>
    </edge>
    <edge id=":1560557449_8" function="internal">
        <lane id=":1560557449_8_0" index="0" speed="6.56" length="9.18" shape="738.46,418.26 740.06,420.14 741.91,421.05 744.00,420.99 746.33,419.95"/>
    </edge>
    <edge id=":1560557449_9" function="internal">
        <lane id=":1560557449_9_0" index="0" speed="8.33" length="14.47" shape="738.46,418.26 746.44,430.34"/>
    </edge>
    <edge id=":1560557449_10" function="internal">
        <lane id=":1560557449_10_0" index="0" speed="8.01" length="5.68" shape="738.46,418.26 740.03,421.81 740.07,423.61"/>
    </edge>
    <edge id=":1560557449_11" function="internal">
        <lane id=":1560557449_11_0" index="0" speed="3.65" length="2.34" shape="738.46,418.26 738.42,419.70 737.95,420.47"/>
    </edge>
    <edge id=":1560557449_20" function="internal">
        <lane id=":1560557449_20_0" index="0" speed="8.01" length="8.49" shape="740.07,423.61 740.10,425.01 738.66,427.88 735.71,430.40"/>
    </edge>
    <edge id=":1560557449_21" function="internal">
        <lane id=":1560557449_21_0" index="0" speed="3.65" length="2.34" shape="737.95,420.47 737.06,420.55 735.75,419.96"/>
    </edge>
    <edge id=":1560557449_12" function="internal">
        <lane id=":1560557449_12_0" index="0" speed="6.52" length="9.03" shape="734.00,427.70 735.88,426.09 736.80,424.27 736.75,422.22 735.75,419.96"/>
    </edge>
    <edge id=":1560557449_13" function="internal">
        <lane id=":1560557449_13_0" index="0" speed="13.89" length="14.56" shape="734.00,427.70 746.33,419.95"/>
    </edge>
    <edge id=":1560557449_14" function="internal">
        <lane id=":1560557449_14_0" index="0" speed="8.17" length="5.97" shape="734.00,427.70 737.54,426.11 739.62,426.05"/>
    </edge>
    <edge id=":1560557449_15" function="internal">
        <lane id=":1560557449_15_0" index="0" speed="3.65" length="2.34" shape="734.00,427.70 735.44,427.73 736.21,428.19"/>
    </edge>
    <edge id=":1560557449_22" function="internal">
        <lane id=":1560557449_22_0" index="0" speed="8.17" length="8.40" shape="739.62,426.05 740.79,426.02 743.75,427.43 746.44,430.34"/>
    </edge>
    <edge id=":1560557449_23" function="internal">
        <lane id=":1560557449_23_0" index="0" speed="3.65" length="2.34" shape="736.21,428.19 736.30,429.08 735.71,430.40"/>
    </edge>
    <edge id=":1560557456_0" function="internal">
        <lane id=":1560557456_0_0" index="0" speed="6.38" length="9.04" shape="494.59,591.44 493.30,589.30 491.65,588.14 489.64,587.94 487.26,588.71"/>
    </edge>
    <edge id=":1560557456_1" function="internal">
        <lane id=":1560557456_1_0" index="0" speed="8.27" length="14.25" shape="494.59,591.44 493.55,587.63 493.87,584.34 495.56,581.59 498.60,579.37"/>
    </edge>
    <edge id=":1560557456_2" function="internal">
        <lane id=":1560557456_2_0" index="0" speed="3.65" length="4.67" shape="494.59,591.44 494.86,590.03 495.44,589.35 496.33,589.41 497.54,590.20"/>
    </edge>
    <edge id=":1560557456_3" function="internal">
        <lane id=":1560557456_3_0" index="0" speed="6.82" length="9.40" shape="500.09,582.21 498.11,583.66 497.02,585.48 496.83,587.66 497.54,590.20"/>
    </edge>
    <edge id=":1560557456_4" function="internal">
        <lane id=":1560557456_4_0" index="0" speed="13.89" length="14.38" shape="500.09,582.21 487.26,588.71"/>
    </edge>
    <edge id=":1560557456_5" function="internal">
        <lane id=":1560557456_5_0" index="0" speed="3.65" length="2.34" shape="500.09,582.21 498.65,582.06 497.93,581.53"/>
    </edge>
    <edge id=":1560557456_9" function="internal">
        <lane id=":1560557456_9_0" index="0" speed="3.65" length="2.34" shape="497.93,581.53 497.91,580.64 498.60,579.37"/>
    </edge>
    <edge id=":1560557456_6" function="internal">
        <lane id=":1560557456_6_0" index="0" speed="13.89" length="14.30" shape="485.85,585.84 498.60,579.37"/>
    </edge>
    <edge id=":1560557456_7" function="internal">
        <lane id=":1560557456_7_0" index="0" speed="7.90" length="5.82" shape="485.85,585.84 489.64,584.61 491.47,584.79"/>
    </edge>
    <edge id=":1560557456_8" function="internal">
        <lane id=":1560557456_8_0" index="0" speed="3.65" length="2.34" shape="485.85,585.84 487.28,586.03 487.99,586.57"/>
    </edge>
    <edge id=":1560557456_10" function="internal">
        <lane id=":1560557456_10_0" index="0" speed="7.90" length="8.60" shape="491.47,584.79 492.85,584.92 495.48,586.79 497.54,590.20"/>
    </edge>
    <edge id=":1560557456_11" function="internal">
        <lane id=":1560557456_11_0" index="0" speed="3.65" length="2.34" shape="487.99,586.57 487.99,587.46 487.26,588.71"/>
    </edge>
    <edge id=":1560557459_0" function="internal">
        <lane id=":1560557459_0_0" index="0" speed="8.33" length="14.35" shape="926.40,679.31 914.13,686.75"/>
    </edge>
    <edge id=":1560557459_1" function="internal">
        <lane id=":1560557459_1_0" index="0" speed="8.24" length="5.74" shape="926.40,679.31 922.90,680.75 920.94,680.75"/>
    </edge>
    <edge id=":1560557459_2" function="internal">
        <lane id=":1560557459_2_0" index="0" speed="3.65" length="2.34" shape="926.40,679.31 924.96,679.24 924.20,678.75"/>
    </edge>
    <edge id=":1560557459_9" function="internal">
        <lane id=":1560557459_9_0" index="0" speed="8.24" length="8.53" shape="920.94,680.75 919.67,680.74 916.72,679.28 914.03,676.37"/>
    </edge>
    <edge id=":1560557459_10" function="internal">
        <lane id=":1560557459_10_0" index="0" speed="3.65" length="2.34" shape="924.20,678.75 924.14,677.86 924.76,676.56"/>
    </edge>
    <edge id=":1560557459_3" function="internal">
        <lane id=":1560557459_3_0" index="0" speed="6.79" length="9.38" shape="916.65,674.53 918.43,676.48 920.37,677.46 922.48,677.49 924.76,676.56"/>
    </edge>
    <edge id=":1560557459_4" function="internal">
        <lane id=":1560557459_4_0" index="0" speed="7.90" length="14.43" shape="916.65,674.53 918.45,678.09 918.63,681.31 917.19,684.20 914.13,686.75"/>
    </edge>
    <edge id=":1560557459_5" function="internal">
        <lane id=":1560557459_5_0" index="0" speed="3.65" length="4.67" shape="916.65,674.53 916.68,675.98 916.26,676.76 915.37,676.90 914.03,676.37"/>
    </edge>
    <edge id=":1560557459_6" function="internal">
        <lane id=":1560557459_6_0" index="0" speed="6.38" length="9.04" shape="912.45,684.03 914.37,682.43 915.27,680.62 915.16,678.60 914.03,676.37"/>
    </edge>
    <edge id=":1560557459_7" function="internal">
        <lane id=":1560557459_7_0" index="0" speed="8.33" length="14.39" shape="912.45,684.03 924.76,676.56"/>
    </edge>
    <edge id=":1560557459_8" function="internal">
        <lane id=":1560557459_8_0" index="0" speed="3.65" length="2.34" shape="912.45,684.03 913.89,684.08 914.65,684.55"/>
    </edge>
    <edge id=":1560557459_11" function="internal">
        <lane id=":1560557459_11_0" index="0" speed="3.65" length="2.34" shape="914.65,684.55 914.73,685.44 914.13,686.75"/>
    </edge>
    <edge id=":1560557461_0" function="internal">
        <lane id=":1560557461_0_0" index="0" speed="8.33" length="14.32" shape="651.00,839.05 638.75,846.45"/>
    </edge>
    <edge id=":1560557461_1" function="internal">
        <lane id=":1560557461_1_0" index="0" speed="8.00" length="5.84" shape="651.00,839.05 647.41,840.54 645.46,840.52"/>
    </edge>
    <edge id=":1560557461_2" function="internal">
        <lane id=":1560557461_2_0" index="0" speed="3.65" length="2.34" shape="651.00,839.05 649.56,838.97 648.81,838.48"/>
    </edge>
    <edge id=":1560557461_9" function="internal">
        <lane id=":1560557461_9_0" index="0" speed="8.00" length="8.36" shape="645.46,840.52 644.20,840.52 641.38,838.99 638.95,835.95"/>
    </edge>
    <edge id=":1560557461_10" function="internal">
        <lane id=":1560557461_10_0" index="0" speed="3.65" length="2.34" shape="648.81,838.48 648.75,837.59 649.37,836.29"/>
    </edge>
    <edge id=":1560557461_3" function="internal">
        <lane id=":1560557461_3_0" index="0" speed="6.51" length="9.03" shape="641.70,834.33 643.25,836.26 645.04,837.23 647.08,837.24 649.37,836.29"/>
    </edge>
    <edge id=":1560557461_4" function="internal">
        <lane id=":1560557461_4_0" index="0" speed="8.05" length="14.17" shape="641.70,834.33 643.19,837.92 643.20,841.13 641.71,843.98 638.75,846.45"/>
    </edge>
    <edge id=":1560557461_5" function="internal">
        <lane id=":1560557461_5_0" index="0" speed="3.65" length="4.67" shape="641.70,834.33 641.62,835.77 641.14,836.52 640.25,836.58 638.95,835.95"/>
    </edge>
    <edge id=":1560557461_6" function="internal">
        <lane id=":1560557461_6_0" index="0" speed="6.56" length="9.08" shape="637.07,843.72 638.97,842.14 639.91,840.32 639.90,838.26 638.95,835.95"/>
    </edge>
    <edge id=":1560557461_7" function="internal">
        <lane id=":1560557461_7_0" index="0" speed="8.33" length="14.37" shape="637.07,843.72 649.37,836.29"/>
    </edge>
    <edge id=":1560557461_8" function="internal">
        <lane id=":1560557461_8_0" index="0" speed="3.65" length="2.34" shape="637.07,843.72 638.51,843.78 639.27,844.25"/>
    </edge>
    <edge id=":1560557461_11" function="internal">
        <lane id=":1560557461_11_0" index="0" speed="3.65" length="2.34" shape="639.27,844.25 639.35,845.14 638.75,846.45"/>
    </edge>
    <edge id=":1560562876_0" function="internal">
        <lane id=":1560562876_0_0" index="0" speed="3.65" length="4.67" shape="174.72,233.01 174.70,231.57 175.14,230.79 176.02,230.67 177.36,231.21"/>
    </edge>
    <edge id=":1560562892_0" function="internal">
        <lane id=":1560562892_0_0" index="0" speed="8.33" length="14.33" shape="198.75,563.99 187.04,572.24"/>
    </edge>
    <edge id=":1560562892_1" function="internal">
        <lane id=":1560562892_1_0" index="0" speed="7.98" length="5.85" shape="198.75,563.99 195.26,565.73 193.32,565.86"/>
    </edge>
    <edge id=":1560562892_2" function="internal">
        <lane id=":1560562892_2_0" index="0" speed="3.65" length="2.34" shape="198.75,563.99 197.31,564.01 196.53,563.58"/>
    </edge>
    <edge id=":1560562892_9" function="internal">
        <lane id=":1560562892_9_0" index="0" speed="7.98" length="8.38" shape="193.32,565.86 192.06,565.94 189.14,564.59 186.52,561.71"/>
    </edge>
    <edge id=":1560562892_10" function="internal">
        <lane id=":1560562892_10_0" index="0" speed="3.65" length="2.34" shape="196.53,563.58 196.40,562.70 196.93,561.36"/>
    </edge>
    <edge id=":1560562892_3" function="internal">
        <lane id=":1560562892_3_0" index="0" speed="6.49" length="9.03" shape="189.16,559.91 190.83,561.74 192.68,562.59 194.72,562.47 196.93,561.36"/>
    </edge>
    <edge id=":1560562892_4" function="internal">
        <lane id=":1560562892_4_0" index="0" speed="8.07" length="14.19" shape="189.16,559.91 190.88,563.41 191.10,566.63 189.82,569.57 187.04,572.24"/>
    </edge>
    <edge id=":1560562892_5" function="internal">
        <lane id=":1560562892_5_0" index="0" speed="3.65" length="4.67" shape="189.16,559.91 189.17,561.35 188.74,562.13 187.85,562.25 186.52,561.71"/>
    </edge>
    <edge id=":1560562892_6" function="internal">
        <lane id=":1560562892_6_0" index="0" speed="6.59" length="9.12" shape="185.18,569.63 186.96,567.93 187.77,566.03 187.63,563.96 186.52,561.71"/>
    </edge>
    <edge id=":1560562892_7" function="internal">
        <lane id=":1560562892_7_0" index="0" speed="8.33" length="14.38" shape="185.18,569.63 196.93,561.36"/>
    </edge>
    <edge id=":1560562892_8" function="internal">
        <lane id=":1560562892_8_0" index="0" speed="3.65" length="2.34" shape="185.18,569.63 186.62,569.59 187.41,570.00"/>
    </edge>
    <edge id=":1560562892_11" function="internal">
        <lane id=":1560562892_11_0" index="0" speed="3.65" length="2.34" shape="187.41,570.00 187.55,570.89 187.04,572.24"/>
    </edge>
    <edge id=":1560576065_0" function="internal">
        <lane id=":1560576065_0_0" index="0" speed="6.22" length="9.05" shape="322.79,1035.04 322.25,1032.56 321.04,1030.97 319.18,1030.27 316.65,1030.46"/>
    </edge>
    <edge id=":1560576065_1" function="internal">
        <lane id=":1560576065_1_0" index="0" speed="8.33" length="14.36" shape="322.79,1035.04 322.97,1030.98 324.17,1027.75 326.39,1025.35 329.62,1023.78"/>
    </edge>
    <edge id=":1560576065_2" function="internal">
        <lane id=":1560576065_2_0" index="0" speed="3.65" length="4.67" shape="322.79,1035.04 323.50,1033.78 324.27,1033.32 325.10,1033.67 325.98,1034.80"/>
    </edge>
    <edge id=":1560576065_3" function="internal">
        <lane id=":1560576065_3_0" index="0" speed="7.43" length="10.01" shape="330.56,1026.84 328.38,1027.92 326.89,1029.61 326.09,1031.90 325.98,1034.80"/>
    </edge>
    <edge id=":1560576065_4" function="internal">
        <lane id=":1560576065_4_0" index="0" speed="8.33" length="14.37" shape="330.56,1026.84 316.65,1030.46"/>
    </edge>
    <edge id=":1560576065_5" function="internal">
        <lane id=":1560576065_5_0" index="0" speed="3.65" length="2.34" shape="330.56,1026.84 329.18,1026.43 328.56,1025.78"/>
    </edge>
    <edge id=":1560576065_9" function="internal">
        <lane id=":1560576065_9_0" index="0" speed="3.65" length="2.34" shape="328.56,1025.78 328.70,1024.90 329.62,1023.78"/>
    </edge>
    <edge id=":1560576065_6" function="internal">
        <lane id=":1560576065_6_0" index="0" speed="8.33" length="14.10" shape="315.97,1027.34 329.62,1023.78"/>
    </edge>
    <edge id=":1560576065_7" function="internal">
        <lane id=":1560576065_7_0" index="0" speed="7.76" length="5.62" shape="315.97,1027.34 320.09,1027.03 321.48,1027.55"/>
    </edge>
    <edge id=":1560576065_8" function="internal">
        <lane id=":1560576065_8_0" index="0" speed="3.65" length="2.34" shape="315.97,1027.34 317.31,1027.86 317.87,1028.55"/>
    </edge>
    <edge id=":1560576065_10" function="internal">
        <lane id=":1560576065_10_0" index="0" speed="7.76" length="9.16" shape="321.48,1027.55 323.13,1028.17 325.10,1030.77 325.98,1034.80"/>
    </edge>
    <edge id=":1560576065_11" function="internal">
        <lane id=":1560576065_11_0" index="0" speed="3.65" length="2.34" shape="317.87,1028.55 317.65,1029.42 316.65,1030.46"/>
    </edge>
    <edge id=":1560576072_0" function="internal">
        <lane id=":1560576072_0_0" index="0" speed="6.48" length="9.03" shape="221.18,1047.33 220.65,1044.91 219.47,1043.25 217.64,1042.35 215.17,1042.21"/>
    </edge>
    <edge id=":1560576072_1" function="internal">
        <lane id=":1560576072_1_0" index="0" speed="8.06" length="14.20" shape="221.18,1047.33 221.44,1043.43 222.86,1040.54 225.44,1038.63 229.20,1037.73"/>
    </edge>
    <edge id=":1560576072_2" function="internal">
        <lane id=":1560576072_2_0" index="0" speed="3.65" length="4.67" shape="221.18,1047.33 221.89,1046.07 222.66,1045.61 223.49,1045.95 224.37,1047.09"/>
    </edge>
    <edge id=":1560576072_3" function="internal">
        <lane id=":1560576072_3_0" index="0" speed="6.58" length="9.11" shape="229.50,1040.91 227.10,1041.49 225.44,1042.72 224.53,1044.58 224.37,1047.09"/>
    </edge>
    <edge id=":1560576072_4" function="internal">
        <lane id=":1560576072_4_0" index="0" speed="8.33" length="14.39" shape="229.50,1040.91 215.17,1042.21"/>
    </edge>
    <edge id=":1560576072_5" function="internal">
        <lane id=":1560576072_5_0" index="0" speed="3.65" length="2.34" shape="229.50,1040.91 228.23,1040.23 227.75,1039.47"/>
    </edge>
    <edge id=":1560576072_9" function="internal">
        <lane id=":1560576072_9_0" index="0" speed="3.65" length="2.34" shape="227.75,1039.47 228.08,1038.64 229.20,1037.73"/>
    </edge>
    <edge id=":1560576072_6" function="internal">
        <lane id=":1560576072_6_0" index="0" speed="8.33" length="14.36" shape="214.89,1039.02 229.20,1037.73"/>
    </edge>
    <edge id=":1560576072_7" function="internal">
        <lane id=":1560576072_7_0" index="0" speed="7.98" length="5.89" shape="214.89,1039.02 218.79,1039.24 220.57,1040.11"/>
    </edge>
    <edge id=":1560576072_8" function="internal">
        <lane id=":1560576072_8_0" index="0" speed="3.65" length="2.34" shape="214.89,1039.02 216.15,1039.71 216.62,1040.48"/>
    </edge>
    <edge id=":1560576072_10" function="internal">
        <lane id=":1560576072_10_0" index="0" speed="7.98" length="8.35" shape="220.57,1040.11 221.67,1040.66 223.53,1043.27 224.37,1047.09"/>
    </edge>
    <edge id=":1560576072_11" function="internal">
        <lane id=":1560576072_11_0" index="0" speed="3.65" length="2.34" shape="216.62,1040.48 216.29,1041.31 215.17,1042.21"/>
    </edge>
    <edge id=":1560576091_0" function="internal">
        <lane id=":1560576091_0_0" index="0" speed="3.65" length="4.67" shape="261.43,1163.75 261.45,1165.20 261.02,1165.98 260.13,1166.10 258.79,1165.57"/>
    </edge>
    <edge id=":1583966091_0" function="internal">
        <lane id=":1583966091_0_0" index="0" speed="13.89" length="0.30" shape="825.55,374.47 825.30,374.63"/>
    </edge>
    <edge id=":1583966091_1" function="internal">
        <lane id=":1583966091_1_0" index="0" speed="3.65" length="2.34" shape="825.55,374.47 824.11,374.42 823.35,373.96"/>
    </edge>
    <edge id=":1583966091_4" function="internal">
        <lane id=":1583966091_4_0" index="0" speed="3.65" length="2.34" shape="823.35,373.96 823.27,373.07 823.86,371.75"/>
    </edge>
    <edge id=":1583966091_2" function="internal">
        <lane id=":1583966091_2_0" index="0" speed="13.89" length="0.30" shape="823.61,371.91 823.86,371.75"/>
    </edge>
    <edge id=":1583966091_3" function="internal">
        <lane id=":1583966091_3_0" index="0" speed="3.65" length="2.34" shape="823.61,371.91 825.05,371.96 825.81,372.42"/>
    </edge>
    <edge id=":1583966091_5" function="internal">
        <lane id=":1583966091_5_0" index="0" speed="3.65" length="2.34" shape="825.81,372.42 825.89,373.32 825.30,374.63"/>
    </edge>
    <edge id=":1617825118_0" function="internal">
        <lane id=":1617825118_0_0" index="0" speed="8.33" length="14.10" shape="600.36,225.93 592.41,214.28"/>
    </edge>
    <edge id=":1617825118_1" function="internal">
        <lane id=":1617825118_1_0" index="0" speed="8.05" length="5.68" shape="600.36,225.93 598.75,222.46 598.66,220.61"/>
    </edge>
    <edge id=":1617825118_2" function="internal">
        <lane id=":1617825118_2_0" index="0" speed="3.65" length="2.34" shape="600.36,225.93 600.38,224.48 600.83,223.71"/>
    </edge>
    <edge id=":1617825118_9" function="internal">
        <lane id=":1617825118_9_0" index="0" speed="8.05" length="8.36" shape="598.66,220.61 598.61,219.28 599.95,216.38 602.77,213.77"/>
    </edge>
    <edge id=":1617825118_10" function="internal">
        <lane id=":1617825118_10_0" index="0" speed="3.65" length="2.34" shape="600.83,223.71 601.72,223.61 603.04,224.18"/>
    </edge>
    <edge id=":1617825118_3" function="internal">
        <lane id=":1617825118_3_0" index="0" speed="6.56" length="8.99" shape="604.59,216.40 602.78,218.07 601.92,219.93 602.01,221.96 603.04,224.18"/>
    </edge>
    <edge id=":1617825118_4" function="internal">
        <lane id=":1617825118_4_0" index="0" speed="8.00" length="14.06" shape="604.59,216.40 601.15,218.12 597.98,218.35 595.06,217.07 592.41,214.28"/>
    </edge>
    <edge id=":1617825118_5" function="internal">