<nodes>
	<node id="1154118695" x="385871.22" y="5813934.15" z="0.00" type="priority" />
	<node id="130097525" x="386319.09" y="5813870.24" z="0.00" type="priority" />
	<node id="1406942843" x="386614.06" y="5813387.41" z="0.00" type="traffic_light" />
	<node id="1406942854" x="386389.66" y="5813560.24" z="0.00" type="priority" />
	<node id="1420372616" x="385995.23" y="5813793.31" z="0.00" type="priority" />
	<node id="1420372623" x="386001.70" y="5813802.43" z="0.00" type="priority" />
	<node id="1474201657" x="385362.18" y="5813869.52" z="0.00" type="priority" />
	<node id="1474201666" x="384962.71" y="5813935.06" z="0.00" type="priority" />
	<node id="1560557449" x="385703.63" y="5813303.77" z="0.00" type="traffic_light" />
	<node id="1560557456" x="385455.90" y="5813462.58" z="0.00" type="priority" />
	<node id="1560557459" x="385882.30" y="5813560.08" z="0.00" type="priority" />
	<node id="1560557461" x="385606.70" y="5813719.91" z="0.00" type="priority" />
	<node id="1560562876" x="385138.75" y="5813110.68" z="0.00" type="priority" />
	<node id="1560562892" x="385154.61" y="5813445.36" z="0.00" type="priority" />
	<node id="1560576065" x="385286.54" y="5813905.81" z="0.00" type="priority" />
	<node id="1560576072" x="385184.95" y="5813918.56" z="0.00" type="priority" />
	<node id="1560576091" x="385222.82" y="5814043.23" z="0.00" type="priority" />
	<node id="1583966091" x="385787.29" y="5813251.76" z="0.00" type="priority" />
	<node id="1617825118" x="385560.55" y="5813097.71" z="0.00" type="priority" />
	<node id="1618793052" x="384994.46" y="5813475.68" z="0.00" type="priority" />
	<node id="1618802105" x="385455.56" y="5812942.98" z="0.00" type="priority" />
	<node id="1629331117" x="386332.61" y="5813680.92" z="0.00" type="priority" />
	<node id="1629331118" x="386409.81" y="5813691.74" z="0.00" type="priority" />
	<node id="1638722795" x="386029.47" y="5813096.27" z="0.00" type="priority" />
	<node id="1638722796" x="386168.60" y="5813274.21" z="0.00" type="priority" />
	<node id="1638854547" x="385994.06" y="5813084.19" z="0.00" type="priority" />
	<node id="1639697686" x="386206.30" y="5813298.88" z="0.00" type="priority" />
	<node id="2291971890" x="386042.69" y="5813111.56" z="0.00" type="priority" />
	<node id="2291971891" x="386036.75" y="5813117.44" z="0.00" type="priority" />
	<node id="2297930735" x="385505.63" y="5813436.58" z="0.00" type="priority" />
	<node id="237164127" x="386627.55" y="5813313.67" z="0.00" type="priority" />
	<node id="26583824" x="385842.89" y="5813886.80" z="0.00" type="traffic_light" />
	<node id="26583825" x="385965.95" y="5813812.16" z="0.00" type="priority" />
	<node id="26583827" x="386421.65" y="5813536.04" z="0.00" type="priority" />
	<node id="26583831" x="386697.71" y="5813055.86" z="0.00" type="priority" />
	<node id="26627402" x="385630.92" y="5814016.00" z="0.00" type="priority" />
	<node id="26729624" x="385893.63" y="5813190.39" z="0.00" type="priority" />
	<node id="26729627" x="385363.55" y="5813507.16" z="0.00" type="priority" />
	<node id="26729631" x="385057.74" y="5813520.78" z="0.00" type="traffic_light" />
	<node id="26729654" x="385897.52" y="5813171.23" z="0.00" type="priority" />
	<node id="267339581" x="386587.33" y="5813812.76" z="0.00" type="priority" />
	<node id="267340563" x="386310.01" y="5813469.47" z="0.00" type="priority" />
	<node id="267340687" x="386194.54" y="5813307.04" z="0.00" type="priority" />
	<node id="267340693" x="386210.31" y="5813326.40" z="0.00" type="priority" />
	<node id="267340733" x="386223.54" y="5813342.86" z="0.00" type="priority" />
	<node id="267341522" x="386038.30" y="5813089.83" z="0.00" type="priority" />
	<node id="267341562" x="386022.53" y="5813101.45" z="0.00" type="priority" />
	<node id="267341637" x="385933.33" y="5812966.10" z="0.00" type="priority" />
	<node id="267346950" x="385733.88" y="5812977.24" z="0.00" type="priority" />
	<node id="267350171" x="386033.27" y="5813127.57" z="0.00" type="priority" />
	<node id="267350184" x="385940.74" y="5813027.23" z="0.00" type="priority" />
	<node id="267350283" x="385984.00" y="5813086.79" z="0.00" type="priority" />
	<node id="267350284" x="385997.11" y="5813100.97" z="0.00" type="priority" />
	<node id="267350285" x="386022.20" y="5813129.32" z="0.00" type="priority" />
	<node id="26840983" x="385137.64" y="5814205.36" z="0.00" type="priority" />
	<node id="26848713" x="385920.45" y="5814017.54" z="0.00" type="traffic_light" />
	<node id="26848718" x="385581.69" y="5813938.18" z="0.00" type="priority" />
	<node id="26848723" x="385794.77" y="5813808.00" z="0.00" type="priority" />
	<node id="26848728" x="385705.92" y="5813661.13" z="0.00" type="priority" />
	<node id="26848737" x="385651.35" y="5813568.64" z="0.00" type="priority" />
	<node id="26848742" x="385604.59" y="5813491.99" z="0.00" type="priority" />
	<node id="26848746" x="385765.30" y="5813392.59" z="0.00" type="priority" />
	<node id="26848750" x="385816.75" y="5813466.70" z="0.00" type="priority" />
	<node id="26848757" x="385777.43" y="5813778.82" z="0.00" type="priority" />
	<node id="26848761" x="385531.85" y="5813857.32" z="0.00" type="priority" />
	<node id="26848769" x="385365.60" y="5814067.92" z="0.00" type="priority" />
	<node id="26848785" x="385491.46" y="5813790.90" z="0.00" type="priority" />
	<node id="26848789" x="385555.06" y="5813400.95" z="0.00" type="traffic_light" />
	<node id="26848809" x="386326.82" y="5813865.83" z="0.00" type="priority" />
	<node id="26848813" x="386328.73" y="5813885.91" z="0.00" type="priority" />
	<node id="26848984" x="386668.88" y="5813905.28" z="0.00" type="priority" />
	<node id="26848988" x="386389.31" y="5813577.33" z="0.00" type="priority" />
	<node id="26848991" x="386019.73" y="5813790.15" z="0.00" type="priority" />
	<node id="26848994" x="386062.50" y="5813770.99" z="0.00" type="priority" />
	<node id="26849000" x="386213.92" y="5813704.62" z="0.00" type="priority" />
	<node id="26849003" x="386224.11" y="5813698.89" z="0.00" type="priority" />
	<node id="26849006" x="385976.21" y="5813657.74" z="0.00" type="priority" />
	<node id="26849008" x="385928.72" y="5813686.86" z="0.00" type="priority" />
	<node id="26849023" x="386453.44" y="5813877.41" z="0.00" type="priority" />
	<node id="26849033" x="386430.04" y="5813548.91" z="0.00" type="priority" />
	<node id="26906634" x="385773.34" y="5812980.94" z="0.00" type="priority" />
	<node id="26906636" x="385852.21" y="5812950.49" z="0.00" type="traffic_light" />
	<node id="26906639" x="385791.30" y="5812966.52" z="0.00" type="priority" />
	<node id="26906824" x="386048.95" y="5813103.33" z="0.00" type="priority" />
	<node id="26906825" x="386067.29" y="5813146.50" z="0.00" type="priority" />
	<node id="26906826" x="386073.51" y="5813132.43" z="0.00" type="priority" />
	<node id="26906828" x="386222.30" y="5813318.69" z="0.00" type="priority" />
	<node id="26906837" x="386183.48" y="5813329.94" z="0.00" type="traffic_light" />
	<node id="26906839" x="386264.57" y="5813288.81" z="0.00" type="priority" />
	<node id="26906841" x="386031.37" y="5813140.72" z="0.00" type="priority" />
	<node id="26906842" x="386083.09" y="5813112.05" z="0.00" type="priority" />
	<node id="26906844" x="386000.92" y="5813134.80" z="0.00" type="priority" />
	<node id="26906845" x="386306.98" y="5813134.87" z="0.00" type="priority" />
	<node id="26906846" x="386320.21" y="5813294.68" z="0.00" type="priority" />
	<node id="26906847" x="385905.18" y="5813184.48" z="0.00" type="priority" />
	<node id="26906848" x="385885.85" y="5813178.66" z="0.00" type="priority" />
	<node id="26907200" x="386148.00" y="5813141.03" z="0.00" type="priority" />
	<node id="26907201" x="386111.40" y="5813092.89" z="0.00" type="priority" />
	<node id="26907202" x="386212.63" y="5813023.47" z="0.00" type="priority" />
	<node id="26907203" x="386224.95" y="5813014.85" z="0.00" type="priority" />
	<node id="26907233" x="386638.48" y="5813369.01" z="0.00" type="priority" />
	<node id="26907678" x="386381.45" y="5813567.16" z="0.00" type="priority" />
	<node id="26907788" x="386191.61" y="5813667.22" z="0.00" type="priority" />
	<node id="26907790" x="386199.89" y="5813661.81" z="0.00" type="priority" />
	<node id="26907792" x="386130.01" y="5813566.08" z="0.00" type="priority" />
	<node id="26907794" x="386149.44" y="5813581.04" z="0.00" type="priority" />
	<node id="26917671" x="385837.47" y="5813220.49" z="0.00" type="priority" />
	<node id="27422504" x="385444.13" y="5813244.19" z="0.00" type="priority" />
	<node id="27422537" x="385299.00" y="5813345.31" z="0.00" type="priority" />
	<node id="27422739" x="385590.07" y="5813142.89" z="0.00" type="priority" />
	<node id="27422748" x="385287.59" y="5813019.37" z="0.00" type="priority" />
	<node id="28120128" x="386341.79" y="5813443.78" z="0.00" type="priority" />
	<node id="28120129" x="386510.23" y="5813659.46" z="0.00" type="priority" />
	<node id="2874697972" x="386154.01" y="5813717.19" z="0.00" type="priority" />
	<node id="28891670" x="386028.84" y="5813471.17" z="0.00" type="priority" />
	<node id="28891684" x="385978.83" y="5813367.57" z="0.00" type="priority" />
	<node id="291709520" x="385482.32" y="5813896.47" z="0.00" type="priority" />
	<node id="29809620" x="386071.34" y="5813398.19" z="0.00" type="priority" />
	<node id="29831327" x="385779.20" y="5812878.57" z="0.00" type="priority" />
	<node id="301567820" x="386230.60" y="5813666.49" z="0.00" type="priority" />
	<node id="301567821" x="386236.99" y="5813671.18" z="0.00" type="priority" />
	<node id="30320243" x="385746.32" y="5813726.52" z="0.00" type="priority" />
	<node id="30441747" x="386089.57" y="5814034.13" z="0.00" type="priority" />
	<node id="31389678" x="386244.54" y="5813407.12" z="0.00" type="priority" />
	<node id="31389680" x="386304.73" y="5813484.50" z="0.00" type="priority" />
	<node id="31389682" x="386420.43" y="5813629.47" z="0.00" type="priority" />
	<node id="31389684" x="386478.27" y="5813701.69" z="0.00" type="priority" />
	<node id="31389697" x="386620.45" y="5813914.46" z="0.00" type="priority" />
	<node id="31390013" x="386127.40" y="5813480.39" z="0.00" type="priority" />
	<node id="31390015" x="386290.76" y="5813656.63" z="0.00" type="priority" />
	<node id="31390016" x="386316.17" y="5813500.68" z="0.00" type="priority" />
	<node id="3175885361" x="386526.50" y="5813470.21" z="0.00" type="priority" />
	<node id="3175885362" x="386314.50" y="5813611.80" z="0.00" type="priority" />
	<node id="3175885363" x="386439.40" y="5813637.54" z="0.00" type="priority" />
	<node id="3245168702" x="385733.32" y="5813285.31" z="0.00" type="priority" />
	<node id="3245168703" x="385669.14" y="5813325.67" z="0.00" type="priority" />
	<node id="3245168704" x="385820.67" y="5813849.14" z="0.00" type="priority" />
	<node id="3245168705" x="385891.08" y="5813856.98" z="0.00" type="priority" />
	<node id="3245168706" x="385774.40" y="5813928.06" z="0.00" type="priority" />
	<node id="3370805367" x="385588.58" y="5813377.86" z="0.00" type="priority" />
	<node id="3370805368" x="385522.54" y="5813426.13" z="0.00" type="priority" />
	<node id="3496881325" x="385914.85" y="5813019.45" z="0.00" type="priority" />
	<node id="353962106" x="386625.15" y="5813193.35" z="0.00" type="priority" />
	<node id="3573516691" x="385708.97" y="5813666.07" z="0.00" type="priority" />
	<node id="365255826" x="386318.35" y="5813213.99" z="0.00" type="priority" />
	<node id="3813750936" x="385567.24" y="5813422.05" z="0.00" type="priority" />
	<node id="3907730345" x="385536.98" y="5813602.01" z="0.00" type="priority" />
	<node id="3956502021" x="385833.69" y="5813068.16" z="0.00" type="priority" />
	<node id="3956502022" x="385841.31" y="5813082.04" z="0.00" type="priority" />
	<node id="3956502023" x="385847.09" y="5813117.03" z="0.00" type="priority" />
	<node id="3956502024" x="385867.53" y="5813127.04" z="0.00" type="priority" />
	<node id="3956502025" x="385863.80" y="5813143.60" z="0.00" type="priority" />
	<node id="3956502027" x="385948.09" y="5813163.75" z="0.00" type="priority" />
	<node id="3956502028" x="385931.39" y="5813229.03" z="0.00" type="priority" />
	<node id="408871794" x="385937.83" y="5813046.01" z="0.00" type="priority" />
	<node id="421409699" x="386336.36" y="5813881.64" z="0.00" type="priority" />
	<node id="421409710" x="386384.72" y="5813957.97" z="0.00" type="priority" />
	<node id="4540444532" x="386413.79" y="5813526.97" z="0.00" type="traffic_light" />
	<node id="4540444533" x="386439.06" y="5813541.45" z="0.00" type="traffic_light" />
	<node id="4540444534" x="386372.94" y="5813573.66" z="0.00" type="traffic_light" />
	<node id="4540444535" x="386396.88" y="5813586.42" z="0.00" type="traffic_light" />
	<node id="4900516052" x="386120.60" y="5813086.57" z="0.00" type="traffic_light" />
	<node id="499636933" x="385978.92" y="5813140.70" z="0.00" type="priority" />
	<node id="5115875840" x="386024.97" y="5813378.13" z="0.00" type="traffic_light" />
	<node id="5115875841" x="386023.41" y="5813394.55" z="0.00" type="traffic_light" />
	<node id="5115875842" x="386138.81" y="5813580.51" z="0.00" type="traffic_light" />
	<node id="5115875843" x="386139.45" y="5813564.88" z="0.00" type="traffic_light" />
	<node id="5115875847" x="386192.74" y="5813650.34" z="0.00" type="traffic_light" />
	<node id="5115875848" x="386196.32" y="5813675.13" z="0.00" type="traffic_light" />
	<node id="5115875849" x="386179.74" y="5813674.84" z="0.00" type="traffic_light" />
	<node id="5115875851" x="386228.40" y="5813705.88" z="0.00" type="traffic_light" />
	<node id="5115875854" x="386224.31" y="5813721.15" z="0.00" type="traffic_light" />
	<node id="5115875855" x="386272.98" y="5813778.42" z="0.00" type="traffic_light" />
	<node id="5115875856" x="386268.79" y="5813791.07" z="0.00" type="traffic_light" />
	<node id="5115875857" x="386318.11" y="5813851.74" z="0.00" type="traffic_light" />
	<node id="5115875860" x="386316.11" y="5813865.49" z="0.00" type="traffic_light" />
	<node id="5115875861" x="386339.51" y="5813886.62" z="0.00" type="traffic_light" />
	<node id="5115875864" x="386338.30" y="5813901.58" z="0.00" type="traffic_light" />
	<node id="5115875867" x="386413.80" y="5814029.89" z="0.00" type="traffic_light" />
	<node id="5115875873" x="386377.13" y="5813945.99" z="0.00" type="traffic_light" />
	<node id="5115875875" x="386383.80" y="5813977.92" z="0.00" type="traffic_light" />
	<node id="5115875877" x="385939.01" y="5813242.14" z="0.00" type="traffic_light" />
	<node id="5115875878" x="385937.27" y="5813257.16" z="0.00" type="traffic_light" />
	<node id="573213380" x="385942.08" y="5813247.58" z="0.00" type="priority" />
	<node id="573213381" x="386245.15" y="5813344.96" z="0.00" type="priority" />
	<node id="5755822653" x="385893.71" y="5812962.93" z="0.00" type="priority" />
	<node id="5846559612" x="385013.79" y="5813241.14" z="0.00" type="priority" />
	<node id="59774785" x="386034.10" y="5812992.67" z="0.00" type="priority" />
	<node id="609002789" x="386018.77" y="5813109.87" z="0.00" type="priority" />
	<node id="6221587584" x="386200.65" y="5813031.68" z="0.00" type="traffic_light" />
	<node id="6221589585" x="386231.56" y="5813024.53" z="0.00" type="traffic_light" />
	<node id="6235317738" x="385981.66" y="5813798.93" z="0.00" type="traffic_light" />
	<node id="6235317741" x="386026.81" y="5813805.21" z="0.00" type="traffic_light" />
	<node id="6235320866" x="386050.20" y="5813134.58" z="0.00" type="traffic_light" />
	<node id="6235320867" x="386023.96" y="5813116.20" z="0.00" type="traffic_light" />
	<node id="6235320870" x="386001.50" y="5813134.65" z="0.00" type="traffic_light" />
	<node id="6235320873" x="386040.08" y="5813151.66" z="0.00" type="traffic_light" />
	<node id="6235320875" x="385889.60" y="5813159.66" z="0.00" type="traffic_light" />
	<node id="6235320880" x="385873.80" y="5813188.02" z="0.00" type="traffic_light" />
	<node id="6235320881" x="385918.76" y="5813178.36" z="0.00" type="traffic_light" />
	<node id="6235320886" x="385902.62" y="5813204.08" z="0.00" type="traffic_light" />
	<node id="6282229085" x="386217.66" y="5813702.52" z="0.00" type="traffic_light" />
	<node id="632358968" x="385460.85" y="5812955.35" z="0.00" type="traffic_light" />
	<node id="6407907603" x="385641.30" y="5814009.59" z="0.00" type="traffic_light" />
	<node id="663977268" x="386435.30" y="5814064.14" z="0.00" type="priority" />
	<node id="928931192" x="386156.82" y="5813689.56" z="0.00" type="priority" />
</nodes>
