<connections>
	<connection from="318138835_3573516691_26848728" to="318138835_26848728_26848737" />
	<connection from="318138835_3573516691_26848728" to="4575464_26848728_1560557461" />
	<connection from="318138835_3573516691_26848728" to="318138835_26848728_3573516691" />
	<connection from="151145585_1639697686_26906828" to="407074317_26906828_573213381" />
	<connection from="4689654_26906846_237164127" to="4689654_237164127_26906846" />
	<connection from="318138835_26848737_26848742" to="318138835_26848742_26848737" />
	<connection from="318138835_26848737_26848742" to="318138835_26848742_3813750936" />
	<connection from="318138835_26848737_26848742" to="4586214_26848742_26848746" />
	<connection from="30144127_6235320873_26906841" to="30144127_26906841_6235320873" />
	<connection from="30144127_6235320873_26906841" to="30144128_26906841_267350285" />
	<connection from="30144127_6235320873_26906841" to="30149205_26906841_3956502027" />
	<connection from="128514916_1406942854_26583827" to="41721041_26583827_26849033" />
	<connection from="128514916_1406942854_26583827" to="311849554_26583827_1406942843" />
	<connection from="158184101_31390015_31390016" to="158184101_31390016_31390015" />
	<connection from="158184101_31390015_31390016" to="31774351_31390016_31389680" />
	<connection from="158184101_31390015_31390016" to="31774351_31390016_31389682" />
	<connection from="70171833_5115875848_26907788" to="27853632_26907788_26907790" />
	<connection from="70171833_5115875848_26907788" to="30149228_26907788_5115875842" />
	<connection from="36071345_130097525_5115875860" to="36071345_5115875860_5115875856" />
	<connection from="209262337_26849023_31389697" to="209262337_31389697_26849023" />
	<connection from="112509370_5115875847_26907790" to="112509370_26907790_26849003" />
	<connection from="209262338_26848813_130097525" to="36071345_130097525_5115875860" />
	<connection from="4575437_27422537_1560562892" to="4575437_1560562892_27422537" />
	<connection from="4575437_27422537_1560562892" to="142594113_1560562892_5846559612" />
	<connection from="4575437_27422537_1560562892" to="4575437_1560562892_26729631" />
	<connection from="30144127_6235320873_26906837" to="30144127_26906837_6235320873" />
	<connection from="30144127_6235320873_26906837" to="31774350_26906837_26906839" />
	<connection from="30144127_6235320873_26906837" to="31774351_26906837_31389678" />
	<connection from="30144127_6235320873_26906837" to="25508124_26906837_29809620" />
	<connection from="330119109_3370805368_2297930735" to="330119110_2297930735_1560557456" />
	<connection from="330119109_3370805368_2297930735" to="330119109_2297930735_3370805368" />
	<connection from="100405260_26848718_26848761" to="150685494_26848761_291709520" />
	<connection from="100405260_26848718_26848761" to="101290091_26848761_26848785" />
	<connection from="100405260_26848718_26848761" to="100405260_26848761_26848718" />
	<connection from="100405260_26848718_26848761" to="101290099_26848761_30320243" />
	<connection from="4531698_26849008_26849006" to="4531699_26849006_26849008" />
	<connection from="4531698_26849008_26849006" to="158184100_26849006_26907792" />
	<connection from="345376482_267350171_26906842" to="4693139_26906842_26907201" />
	<connection from="4871839_26907200_26907201" to="4871839_26907201_26907200" />
	<connection from="4871839_26907200_26907201" to="387921527_26907201_4900516052" />
	<connection from="4871839_26907200_26907201" to="4693139_26907201_26906842" />
	<connection from="30149228_5115875878_6235320886" to="30149228_6235320886_26729624" />
	<connection from="451621855_26906844_6235320870" to="451621855_6235320870_267350285" />
	<connection from="41721037_28120128_4540444532" to="41721037_4540444532_26583827" />
	<connection from="318138851_26583824_3245168706" to="318138851_3245168706_26583824" />
	<connection from="318138851_26583824_3245168706" to="36072975_3245168706_6407907603" />
	<connection from="33115814_1560557449_27422739" to="4575437_27422739_27422504" />
	<connection from="33115814_1560557449_27422739" to="33115814_27422739_1617825118" />
	<connection from="33115814_1560557449_27422739" to="33115814_27422739_1560557449" />
	<connection from="158184100_26907792_26849006" to="4531699_26849006_26849008" />
	<connection from="158184100_26907792_26849006" to="158184100_26849006_26907792" />
	<connection from="330119110_2297930735_1560557456" to="142593458_1560557456_3907730345" />
	<connection from="330119110_2297930735_1560557456" to="330119110_1560557456_2297930735" />
	<connection from="330119110_2297930735_1560557456" to="330119110_1560557456_26729627" />
	<connection from="31774350_26906839_26906837" to="30144127_26906837_6235320873" />
	<connection from="31774350_26906839_26906837" to="31774350_26906837_26906839" />
	<connection from="31774350_26906839_26906837" to="31774351_26906837_31389678" />
	<connection from="31774350_26906839_26906837" to="25508124_26906837_29809620" />
	<connection from="41721037_4540444532_26583827" to="41721041_26583827_26849033" />
	<connection from="41721037_4540444532_26583827" to="311849554_26583827_1406942843" />
	<connection from="311849554_26583827_1406942843" to="311849554_1406942843_26907233" />
	<connection from="318138829_3245168702_1583966091" to="318138829_1583966091_3245168702" />
	<connection from="318138829_3245168702_1583966091" to="225442114_1583966091_26917671" />
	<connection from="387921527_6221587584_4900516052" to="387921527_4900516052_6221587584" />
	<connection from="387921527_6221587584_4900516052" to="387921527_4900516052_26907201" />
	<connection from="318138835_3573516691_30320243" to="318138835_30320243_26848757" />
	<connection from="318138835_3573516691_30320243" to="101290099_30320243_26848761" />
	<connection from="318138835_3573516691_30320243" to="318138835_30320243_3573516691" />
	<connection from="4531702_26849003_6282229085" to="4531702_6282229085_26849000" />
	<connection from="133988465_1560576065_1560576072" to="133988465_1560576072_1474201666" />
	<connection from="133988465_1560576065_1560576072" to="133988465_1560576072_1560576065" />
	<connection from="133988465_1560576065_1560576072" to="142595166_1560576072_1560576091" />
	<connection from="112509341_5115875861_5115875873" to="112509341_5115875873_421409710" />
	<connection from="483483274_26906848_3956502025" to="501432098_3956502025_3956502023" />
	<connection from="142594115_1560562876_27422537" to="4575437_27422537_27422504" />
	<connection from="142594115_1560562876_27422537" to="4575437_27422537_1560562892" />
	<connection from="142594115_1560562876_27422537" to="142594115_27422537_1560562876" />
	<connection from="133988465_1560576072_1474201666" to="133988465_1474201666_1560576072" />
	<connection from="4531696_26848757_26849008" to="4531698_26849008_26849006" />
	<connection from="4531696_26848757_26849008" to="4531696_26849008_26848757" />
	<connection from="148708810_267346950_1617825118" to="33115814_1617825118_632358968" />
	<connection from="148708810_267346950_1617825118" to="148708810_1617825118_267346950" />
	<connection from="148708810_267346950_1617825118" to="33115814_1617825118_27422739" />
	<connection from="128601849_26849000_6235317741" to="128601849_6235317741_1420372623" />
	<connection from="209262338_5115875864_26848813" to="209262338_26848813_130097525" />
	<connection from="209262338_5115875864_26848813" to="36071344_26848813_421409699" />
	<connection from="27853642_26848809_130097525" to="27853642_130097525_26848809" />
	<connection from="27853642_26848809_130097525" to="36071345_130097525_5115875860" />
	<connection from="31774351_31389678_31389680" to="31774351_31389680_31389678" />
	<connection from="31774351_31389678_31389680" to="31774351_31389680_31390016" />
	<connection from="31774351_31389678_31389680" to="149992738_31389680_26907794" />
	<connection from="318138835_26848737_26848728" to="318138835_26848728_26848737" />
	<connection from="318138835_26848737_26848728" to="4575464_26848728_1560557461" />
	<connection from="318138835_26848737_26848728" to="318138835_26848728_3573516691" />
	<connection from="209262338_5115875875_5115875864" to="209262338_5115875864_26848813" />
	<connection from="318138835_30320243_3573516691" to="318138835_3573516691_26848728" />
	<connection from="318138835_30320243_3573516691" to="318138835_3573516691_30320243" />
	<connection from="318138835_30320243_3573516691" to="27637846_3573516691_1560557459" />
	<connection from="311849553_26848988_301567821" to="27465049_301567821_2874697972" />
	<connection from="150685494_26848761_291709520" to="150685494_291709520_26848761" />
	<connection from="437152240_6235320881_26906847" to="483483276_26906847_3956502028" />
	<connection from="437152240_6235320881_26906847" to="4693138_26906847_26729624" />
	<connection from="225442115_3370805368_26848789" to="377968517_26848789_3813750936" />
	<connection from="225442115_3370805368_26848789" to="330119108_26848789_3370805367" />
	<connection from="225442115_3370805368_26848789" to="28131584_26848789_27422504" />
	<connection from="225442115_3370805368_26848789" to="225442115_26848789_3370805368" />
	<connection from="25508122_30441747_26848813" to="209262338_26848813_130097525" />
	<connection from="25508122_30441747_26848813" to="36071344_26848813_421409699" />
	<connection from="4463298_26906825_2291971891" to="220076575_2291971891_267341562" />
	<connection from="149992738_31389680_26907794" to="149992738_26907794_31389680" />
	<connection from="149992738_31389680_26907794" to="112509370_26907794_5115875847" />
	<connection from="377968517_3813750936_26848789" to="377968517_26848789_3813750936" />
	<connection from="377968517_3813750936_26848789" to="330119108_26848789_3370805367" />
	<connection from="377968517_3813750936_26848789" to="28131584_26848789_27422504" />
	<connection from="377968517_3813750936_26848789" to="225442115_26848789_3370805368" />
	<connection from="4575464_26848785_1474201657" to="133988465_1474201657_1560576065" />
	<connection from="4575464_26848785_1474201657" to="4575464_1474201657_26848785" />
	<connection from="4575437_27422504_27422739" to="4575437_27422739_27422504" />
	<connection from="4575437_27422504_27422739" to="33115814_27422739_1617825118" />
	<connection from="4575437_27422504_27422739" to="33115814_27422739_1560557449" />
	<connection from="30149205_26906841_3956502027" to="437152240_3956502027_6235320881" />
	<connection from="451621864_6235320875_26729654" to="4463223_26729654_26906847" />
	<connection from="451621864_6235320875_26729654" to="30144130_26729654_499636933" />
	<connection from="30149228_5115875841_5115875878" to="30149228_5115875878_6235320886" />
	<connection from="4475206_26848769_26840983" to="4475206_26840983_26848769" />
	<connection from="101290099_26848761_30320243" to="318138835_30320243_26848757" />
	<connection from="101290099_26848761_30320243" to="101290099_30320243_26848761" />
	<connection from="101290099_26848761_30320243" to="318138835_30320243_3573516691" />
	<connection from="4531702_6282229085_26849000" to="70171833_26849000_5115875848" />
	<connection from="4531702_6282229085_26849000" to="128601849_26849000_6235317741" />
	<connection from="30144127_26906837_6235320873" to="30144127_6235320873_26906841" />
	<connection from="30144127_26906837_6235320873" to="30144127_6235320873_26906837" />
	<connection from="149992812_1629331118_1629331117" to="149992812_1629331117_1629331118" />
	<connection from="149992812_1629331118_1629331117" to="149992812_1629331117_31390015" />
	<connection from="149992812_1629331118_1629331117" to="149992813_1629331117_26849023" />
	<connection from="33115814_27422739_1617825118" to="33115814_1617825118_632358968" />
	<connection from="33115814_27422739_1617825118" to="148708810_1617825118_267346950" />
	<connection from="33115814_27422739_1617825118" to="33115814_1617825118_27422739" />
	<connection from="151024105_267340687_1638722796" to="407071532_1638722796_26906825" />
	<connection from="311849552_4540444534_26907678" to="311849552_26907678_1406942854" />
	<connection from="311849552_4540444534_26907678" to="4463295_26907678_267340563" />
	<connection from="112509370_5115875840_5115875843" to="112509370_5115875843_26907794" />
	<connection from="151024102_2291971890_1638722795" to="220076574_1638722795_5755822653" />
	<connection from="318138830_3245168702_1560557449" to="318138830_1560557449_3245168702" />
	<connection from="318138830_3245168702_1560557449" to="33115814_1560557449_27422739" />
	<connection from="318138830_3245168702_1560557449" to="318138831_1560557449_3245168703" />
	<connection from="318138830_3245168702_1560557449" to="142593460_1560557449_26848746" />
	<connection from="469999008_3956502022_3956502024" to="451621864_3956502024_6235320875" />
	<connection from="4871838_6221589585_26906845" to="4871838_26906845_365255826" />
	<connection from="4871838_6221589585_26906845" to="4871838_26906845_6221589585" />
	<connection from="4871838_6221589585_26906845" to="4582020_26906845_26907200" />
	<connection from="4871838_6221589585_26906845" to="4582020_26906845_26583831" />
	<connection from="30157292_267350285_267350284" to="469999026_267350284_267350283" />
	<connection from="142594115_27422537_1560562876" to="142594115_1560562876_27422537" />
	<connection from="318138835_26848742_26848737" to="158184094_26848737_26848750" />
	<connection from="318138835_26848742_26848737" to="318138835_26848737_26848742" />
	<connection from="318138835_26848742_26848737" to="318138835_26848737_26848728" />
	<connection from="377968517_26848789_3813750936" to="377968517_3813750936_26848789" />
	<connection from="377968517_26848789_3813750936" to="318138835_3813750936_26848742" />
	<connection from="151145583_267340693_267340687" to="151024105_267340687_1638722796" />
	<connection from="318138830_1560557449_3245168702" to="318138830_3245168702_1560557449" />
	<connection from="318138830_1560557449_3245168702" to="318138829_3245168702_1583966091" />
	<connection from="4871838_365255826_26906845" to="4871838_26906845_365255826" />
	<connection from="4871838_365255826_26906845" to="4871838_26906845_6221589585" />
	<connection from="4871838_365255826_26906845" to="4582020_26906845_26907200" />
	<connection from="4871838_365255826_26906845" to="4582020_26906845_26583831" />
	<connection from="36072975_3245168706_6407907603" to="36072975_6407907603_26627402" />
	<connection from="36072975_3245168706_6407907603" to="36072975_6407907603_3245168706" />
	<connection from="158184094_26848750_26848737" to="158184094_26848737_26848750" />
	<connection from="158184094_26848750_26848737" to="318138835_26848737_26848742" />
	<connection from="158184094_26848750_26848737" to="318138835_26848737_26848728" />
	<connection from="4871838_365255826_26906846" to="4871838_26906846_365255826" />
	<connection from="4871838_365255826_26906846" to="4689654_26906846_237164127" />
	<connection from="4871838_365255826_26906846" to="4689654_26906846_26906839" />
	<connection from="33115814_1617825118_27422739" to="4575437_27422739_27422504" />
	<connection from="33115814_1617825118_27422739" to="33115814_27422739_1617825118" />
	<connection from="33115814_1617825118_27422739" to="33115814_27422739_1560557449" />
	<connection from="4582020_26906845_26907200" to="4871839_26907200_26907201" />
	<connection from="4582020_26906845_26907200" to="4582020_26907200_26906845" />
	<connection from="4582020_26906845_26907200" to="4871839_26907200_26906839" />
	<connection from="27465049_301567821_2874697972" to="29024753_2874697972_26848994" />
	<connection from="142593460_26848746_1560557449" to="318138830_1560557449_3245168702" />
	<connection from="142593460_26848746_1560557449" to="33115814_1560557449_27422739" />
	<connection from="142593460_26848746_1560557449" to="318138831_1560557449_3245168703" />
	<connection from="142593460_26848746_1560557449" to="142593460_1560557449_26848746" />
	<connection from="318138835_3245168704_26848723" to="4475206_26848723_26848718" />
	<connection from="318138835_3245168704_26848723" to="318138835_26848723_3245168704" />
	<connection from="318138835_3245168704_26848723" to="318138835_26848723_26848757" />
	<connection from="4582020_26583831_26906845" to="4871838_26906845_365255826" />
	<connection from="4582020_26583831_26906845" to="4871838_26906845_6221589585" />
	<connection from="4582020_26583831_26906845" to="4582020_26906845_26907200" />
	<connection from="4582020_26583831_26906845" to="4582020_26906845_26583831" />
	<connection from="133988465_1474201666_1560576072" to="133988465_1560576072_1474201666" />
	<connection from="133988465_1474201666_1560576072" to="133988465_1560576072_1560576065" />
	<connection from="133988465_1474201666_1560576072" to="142595166_1560576072_1560576091" />
	<connection from="101290092_26729627_26848785" to="101290092_26848785_26729627" />
	<connection from="101290092_26729627_26848785" to="101290091_26848785_26848761" />
	<connection from="101290092_26729627_26848785" to="4575464_26848785_1474201657" />
	<connection from="101290092_26729627_26848785" to="4575464_26848785_1560557461" />
	<connection from="32486561_353962106_365255826" to="4871838_365255826_26906845" />
	<connection from="32486561_353962106_365255826" to="32486561_365255826_353962106" />
	<connection from="32486561_353962106_365255826" to="4871838_365255826_26906846" />
	<connection from="318138834_3370805367_3245168703" to="318138834_3245168703_3370805367" />
	<connection from="318138834_3370805367_3245168703" to="318138831_3245168703_1560557449" />
	<connection from="387921527_6221587584_26907202" to="387921527_26907202_6221587584" />
	<connection from="148708810_1617825118_267346950" to="148708810_267346950_1617825118" />
	<connection from="4582020_26907200_26906845" to="4871838_26906845_365255826" />
	<connection from="4582020_26907200_26906845" to="4871838_26906845_6221589585" />
	<connection from="4582020_26907200_26906845" to="4582020_26906845_26907200" />
	<connection from="4582020_26907200_26906845" to="4582020_26906845_26583831" />
	<connection from="330119108_3370805367_26848789" to="377968517_26848789_3813750936" />
	<connection from="330119108_3370805367_26848789" to="330119108_26848789_3370805367" />
	<connection from="330119108_3370805367_26848789" to="28131584_26848789_27422504" />
	<connection from="330119108_3370805367_26848789" to="225442115_26848789_3370805368" />
	<connection from="4575437_27422537_27422504" to="4575437_27422504_27422739" />
	<connection from="4575437_27422537_27422504" to="28131584_27422504_27422748" />
	<connection from="4575437_27422537_27422504" to="4575437_27422504_27422537" />
	<connection from="4575437_27422537_27422504" to="28131584_27422504_26848789" />
	<connection from="4689654_26906846_26906839" to="4689654_26906839_26906846" />
	<connection from="4689654_26906846_26906839" to="31774350_26906839_26906837" />
	<connection from="4689654_26906846_26906839" to="4871839_26906839_26907200" />
	<connection from="330119110_1560557456_26729627" to="101290092_26729627_26848785" />
	<connection from="330119110_1560557456_26729627" to="330119107_26729627_26729631" />
	<connection from="330119110_1560557456_26729627" to="330119110_26729627_1560557456" />
	<connection from="4575464_26848785_1560557461" to="4575464_1560557461_26848728" />
	<connection from="4575464_26848785_1560557461" to="387478999_1560557461_3907730345" />
	<connection from="4575464_26848785_1560557461" to="4575464_1560557461_26848785" />
	<connection from="4575464_1560557461_26848785" to="101290092_26848785_26729627" />
	<connection from="4575464_1560557461_26848785" to="101290091_26848785_26848761" />
	<connection from="4575464_1560557461_26848785" to="4575464_26848785_1474201657" />
	<connection from="4575464_1560557461_26848785" to="4575464_26848785_1560557461" />
	<connection from="209262337_26849023_26848809" to="209262337_26848809_26849023" />
	<connection from="209262337_26849023_26848809" to="27853642_26848809_130097525" />
	<connection from="209262337_26849023_26848809" to="112509341_26848809_421409699" />
	<connection from="84659762_6235320880_26906848" to="483483274_26906848_3956502025" />
	<connection from="84659762_6235320880_26906848" to="4693137_26906848_26729654" />
	<connection from="525975762_5115875877_573213380" to="112509370_573213380_5115875840" />
	<connection from="36071345_5115875856_5115875854" to="36071345_5115875854_26849000" />
	<connection from="4575437_1560562892_27422537" to="4575437_27422537_27422504" />
	<connection from="4575437_1560562892_27422537" to="4575437_27422537_1560562892" />
	<connection from="4575437_1560562892_27422537" to="142594115_27422537_1560562876" />
	<connection from="142594113_1560562892_5846559612" to="142594113_5846559612_1560562892" />
	<connection from="30149207_26729624_26906848" to="483483274_26906848_3956502025" />
	<connection from="30149207_26729624_26906848" to="4693137_26906848_26729654" />
	<connection from="151145587_267340733_267340693" to="151145583_267340693_267340687" />
	<connection from="149992814_31389682_1629331118" to="149992814_1629331118_31389682" />
	<connection from="149992814_31389682_1629331118" to="149992812_1629331118_31389684" />
	<connection from="149992814_31389682_1629331118" to="149992812_1629331118_1629331117" />
	<connection from="4871839_26907200_26906839" to="4689654_26906839_26906846" />
	<connection from="4871839_26907200_26906839" to="31774350_26906839_26906837" />
	<connection from="4871839_26907200_26906839" to="4871839_26906839_26907200" />
	<connection from="311849552_3175885362_4540444534" to="311849552_4540444534_26907678" />
	<connection from="158184094_26848737_26848750" to="158184094_26848750_26848737" />
	<connection from="158184094_26848737_26848750" to="142593460_26848750_26848746" />
	<connection from="158184094_26848737_26848750" to="158184094_26848750_28891684" />
	<connection from="158184094_26848737_26848750" to="142593460_26848750_1560557459" />
	<connection from="4475206_26848718_26848769" to="142595164_26848769_1560576065" />
	<connection from="4475206_26848718_26848769" to="4475206_26848769_26848718" />
	<connection from="4475206_26848718_26848769" to="4475206_26848769_26840983" />
	<connection from="220076575_2291971891_267341562" to="192464201_267341562_26906636" />
	<connection from="101290092_26848785_26729627" to="101290092_26729627_26848785" />
	<connection from="101290092_26848785_26729627" to="330119107_26729627_26729631" />
	<connection from="101290092_26848785_26729627" to="330119110_26729627_1560557456" />
	<connection from="29024754_26848991_26848994" to="29024754_26848994_26848991" />
	<connection from="29024754_26848991_26848994" to="29024753_26848994_2874697972" />
	<connection from="318138838_26583824_1154118695" to="318138838_1154118695_26583824" />
	<connection from="318138838_26583824_1154118695" to="172382664_1154118695_26848713" />
	<connection from="318138851_3245168706_26583824" to="4475167_26583824_3245168704" />
	<connection from="318138851_3245168706_26583824" to="318138851_26583824_3245168706" />
	<connection from="318138851_3245168706_26583824" to="318138838_26583824_1154118695" />
	<connection from="318138851_3245168706_26583824" to="318138844_26583824_3245168705" />
	<connection from="4475206_26848723_26848718" to="4475206_26848718_26848723" />
	<connection from="4475206_26848723_26848718" to="100405260_26848718_26848761" />
	<connection from="4475206_26848723_26848718" to="4475206_26848718_26848769" />
	<connection from="407074317_26906828_573213381" to="4531736_573213381_28120128" />
	<connection from="407074317_26906828_573213381" to="151021737_573213381_26848984" />
	<connection from="28131584_27422504_27422748" to="28131584_27422748_27422504" />
	<connection from="30157286_267350283_408871794" to="96088289_408871794_3496881325" />
	<connection from="30157286_267350283_408871794" to="50231386_408871794_267350184" />
	<connection from="142593460_26848750_1560557459" to="27637846_1560557459_28891670" />
	<connection from="142593460_26848750_1560557459" to="27637846_1560557459_3573516691" />
	<connection from="142593460_26848750_1560557459" to="142593460_1560557459_26848750" />
	<connection from="36072975_6407907603_3245168706" to="318138851_3245168706_26583824" />
	<connection from="36072975_6407907603_3245168706" to="36072975_3245168706_6407907603" />
	<connection from="101290091_26848785_26848761" to="150685494_26848761_291709520" />
	<connection from="101290091_26848785_26848761" to="101290091_26848761_26848785" />
	<connection from="101290091_26848785_26848761" to="100405260_26848761_26848718" />
	<connection from="101290091_26848785_26848761" to="101290099_26848761_30320243" />
	<connection from="387921527_26907202_6221587584" to="387921527_6221587584_26907202" />
	<connection from="387921527_26907202_6221587584" to="387921527_6221587584_4900516052" />
	<connection from="28131584_26848789_27422504" to="4575437_27422504_27422739" />
	<connection from="28131584_26848789_27422504" to="28131584_27422504_27422748" />
	<connection from="28131584_26848789_27422504" to="4575437_27422504_27422537" />
	<connection from="28131584_26848789_27422504" to="28131584_27422504_26848789" />
	<connection from="440212233_26849003_5115875851" to="440212233_5115875851_5115875855" />
	<connection from="158184100_26849006_26907792" to="30149228_26907792_5115875841" />
	<connection from="158184100_26849006_26907792" to="158184100_26907792_26849006" />
	<connection from="4449224_267339581_267340733" to="151145587_267340733_267340693" />
	<connection from="158184094_26848750_28891684" to="158184094_28891684_26848750" />
	<connection from="128601849_6235317741_1420372623" to="128602194_1420372623_26583825" />
	<connection from="4463295_26907678_267340563" to="41721039_267340563_267340733" />
	<connection from="407071532_1638722796_26906825" to="151024104_26906825_2291971890" />
	<connection from="407071532_1638722796_26906825" to="4463298_26906825_2291971891" />
	<connection from="30144128_26906841_267350285" to="30711011_267350285_267350171" />
	<connection from="30144128_26906841_267350285" to="30157292_267350285_267350284" />
	<connection from="28131584_27422748_27422504" to="4575437_27422504_27422739" />
	<connection from="28131584_27422748_27422504" to="28131584_27422504_27422748" />
	<connection from="28131584_27422748_27422504" to="4575437_27422504_27422537" />
	<connection from="28131584_27422748_27422504" to="28131584_27422504_26848789" />
	<connection from="311849552_26907678_1406942854" to="128514916_1406942854_26583827" />
	<connection from="4531699_26849006_26849008" to="4531698_26849008_26849006" />
	<connection from="4531699_26849006_26849008" to="4531696_26849008_26848757" />
	<connection from="142593458_1560557456_3907730345" to="387478999_3907730345_1560557461" />
	<connection from="142593458_1560557456_3907730345" to="142593458_3907730345_1560557456" />
	<connection from="36071345_5115875854_26849000" to="70171833_26849000_5115875848" />
	<connection from="36071345_5115875854_26849000" to="128601849_26849000_6235317741" />
	<connection from="128601785_1420372616_1420372623" to="128602194_1420372623_26583825" />
	<connection from="128601785_1420372616_1420372623" to="128601785_1420372623_1420372616" />
	<connection from="4693139_26907201_26906842" to="30144126_26906842_6235320866" />
	<connection from="4693139_26907201_26906842" to="4693139_26906842_26907201" />
	<connection from="30149228_26907788_5115875842" to="30149228_5115875842_26907792" />
	<connection from="148808620_26729624_26917671" to="225442114_26917671_1583966091" />
	<connection from="330119110_1560557456_2297930735" to="330119110_2297930735_1560557456" />
	<connection from="330119110_1560557456_2297930735" to="330119109_2297930735_3370805368" />
	<connection from="149992813_26849023_1629331117" to="149992812_1629331117_1629331118" />
	<connection from="149992813_26849023_1629331117" to="149992812_1629331117_31390015" />
	<connection from="149992813_26849023_1629331117" to="149992813_1629331117_26849023" />
	<connection from="469999017_3956502021_3956502022" to="469999008_3956502022_3956502024" />
	<connection from="172382664_1154118695_26848713" to="172382664_26848713_1154118695" />
	<connection from="342722687_1638854547_609002789" to="276233847_609002789_6235320867" />
	<connection from="33115814_27422739_1560557449" to="318138830_1560557449_3245168702" />
	<connection from="33115814_27422739_1560557449" to="33115814_1560557449_27422739" />
	<connection from="33115814_27422739_1560557449" to="318138831_1560557449_3245168703" />
	<connection from="33115814_27422739_1560557449" to="142593460_1560557449_26848746" />
	<connection from="142595164_1560576065_26848769" to="142595164_26848769_1560576065" />
	<connection from="142595164_1560576065_26848769" to="4475206_26848769_26848718" />
	<connection from="142595164_1560576065_26848769" to="4475206_26848769_26840983" />
	<connection from="4871839_26906839_26907200" to="4871839_26907200_26907201" />
	<connection from="4871839_26906839_26907200" to="4582020_26907200_26906845" />
	<connection from="4871839_26906839_26907200" to="4871839_26907200_26906839" />
	<connection from="4871838_26906845_365255826" to="4871838_365255826_26906845" />
	<connection from="4871838_26906845_365255826" to="32486561_365255826_353962106" />
	<connection from="4871838_26906845_365255826" to="4871838_365255826_26906846" />
	<connection from="330119107_26729631_1618793052" to="330119107_1618793052_26729631" />
	<connection from="27853632_26907788_26907790" to="112509370_26907790_26849003" />